version 2
run General-0-20140227-13:55:13-1428
attr configname General
attr datetime 20140227-13:55:13
attr experiment General
attr inifile omnetpp.ini
attr iterationvars ""
attr iterationvars2 $repetition=0
attr measurement ""
attr network ClientServerNetwork
attr processid 1428
attr repetition 0
attr replication #0
attr resultdir results
attr runnumber 0
attr seedset 0

scalar ClientServerNetwork.server.networkLayer.arp 	failedResolution:count 	0
attr title  "ARP failed resolutions, count"
scalar ClientServerNetwork.server.networkLayer.arp 	initiatedResolution:count 	0
attr title  "ARP initiated resolutions, count"
scalar ClientServerNetwork.server.networkLayer.arp 	sentReplies:count 	0
attr title  "ARP replies sent, count"
scalar ClientServerNetwork.server.networkLayer.arp 	sentReq:count 	0
attr title  "ARP request sent, count"
scalar ClientServerNetwork.server.lo0.lo 	passedUpPk:count 	0
attr interpolationmode  none
attr source  packetSentToUpper
attr title  "packets passed to higher layer, count"
scalar ClientServerNetwork.server.lo0.lo 	passedUpPk:sum(packetBytes) 	0
attr interpolationmode  none
attr source  packetSentToUpper
attr title  "packets passed to higher layer, sum(packetBytes)"
scalar ClientServerNetwork.server.lo0.lo 	rcvdPkFromHL:count 	0
attr interpolationmode  none
attr source  packetReceivedFromUpper
attr title  "packets received from higher layer, count"
scalar ClientServerNetwork.server.lo0.lo 	rcvdPkFromHL:sum(packetBytes) 	0
attr interpolationmode  none
attr source  packetReceivedFromUpper
attr title  "packets received from higher layer, sum(packetBytes)"
scalar ClientServerNetwork.server.lo0.lo 	droppedPkBitError:count 	0
attr interpolationmode  none
attr source  dropPkBitError
attr title  "packets dropped/bit error, count"
scalar ClientServerNetwork.server.lo0.lo 	droppedPkBitError:sum(packetBytes) 	0
attr interpolationmode  none
attr source  dropPkBitError
attr title  "packets dropped/bit error, sum(packetBytes)"
scalar ClientServerNetwork.server.ppp[0].queue 	queueLength:max 	2
attr interpolationmode  sample-hold
attr title  "queue length, max"
scalar ClientServerNetwork.server.ppp[0].queue 	queueLength:timeavg 	0.0011098735892262
attr interpolationmode  sample-hold
attr title  "queue length, timeavg"
statistic ClientServerNetwork.server.ppp[0].queue 	queueingTime:histogram
field count 75
field mean 5.4473846666667e-07
field stddev 1.1265455767299e-06
field sum 4.0855385e-05
field sqrsum 1.1616926507725e-10
field min 0
field max 5.863959e-06
attr interpolationmode  none
attr title  "queueing time, histogram"
bin	-INF	0
bin	-2.9319795e-06	0
bin	-2.5410489e-06	0
bin	-2.1501183e-06	0
bin	-1.7591877e-06	0
bin	-1.3682571e-06	0
bin	-9.773265e-07	0
bin	-5.863959e-07	0
bin	-1.954653e-07	45
bin	1.954653e-07	1
bin	5.863959e-07	23
bin	9.773265e-07	0
bin	1.3682571e-06	0
bin	1.7591877e-06	1
bin	2.1501183e-06	1
bin	2.5410489e-06	0
bin	2.9319795e-06	0
bin	3.3229101e-06	0
bin	3.7138407e-06	1
bin	4.1047713e-06	0
bin	4.4957019e-06	2
bin	4.8866325e-06	0
bin	5.2775631e-06	0
bin	5.6684937e-06	1
bin	6.0594243e-06	0
bin	6.4503549e-06	0
bin	6.8412855e-06	0
bin	7.2322161e-06	0
bin	7.6231467e-06	0
bin	8.0140773e-06	0
bin	8.4050079e-06	0
bin	8.7959385e-06	0
scalar ClientServerNetwork.server.ppp[0].queue 	dropPk:count 	0
attr interpolationmode  none
attr source  dropPkByQueue
attr title  "dropped packets, count"
scalar ClientServerNetwork.server.ppp[0].queue 	dropPk:sum(packetBytes) 	0
attr interpolationmode  none
attr source  dropPkByQueue
attr title  "dropped packets, sum(packetBytes)"
scalar ClientServerNetwork.server.ppp[0].queue 	rcvdPk:count 	75
attr interpolationmode  none
attr title  "received packets, count"
scalar ClientServerNetwork.server.ppp[0].queue 	rcvdPk:sum(packetBytes) 	11834
attr interpolationmode  none
attr title  "received packets, sum(packetBytes)"
scalar ClientServerNetwork.server.ppp[0].ppp 	droppedPkIfaceDown:count 	0
attr interpolationmode  none
attr source  dropPkIfaceDown
attr title  "packets dropped/interface down, count"
scalar ClientServerNetwork.server.ppp[0].ppp 	droppedPkIfaceDown:sum(packetBytes) 	0
attr interpolationmode  none
attr source  dropPkIfaceDown
attr title  "packets dropped/interface down, sum(packetBytes)"
scalar ClientServerNetwork.server.ppp[0].ppp 	rxPkOk:count 	100
attr interpolationmode  none
attr source  rxPkOk
attr title  "packets received OK, count"
scalar ClientServerNetwork.server.ppp[0].ppp 	rxPkOk:sum(packetBytes) 	5150
attr interpolationmode  none
attr source  rxPkOk
attr title  "packets received OK, sum(packetBytes)"
scalar ClientServerNetwork.server.ppp[0].ppp 	txPk:count 	75
attr interpolationmode  none
attr source  packetSentToLower
attr title  "packets transmitted, count"
scalar ClientServerNetwork.server.ppp[0].ppp 	txPk:sum(packetBytes) 	12359
attr interpolationmode  none
attr source  packetSentToLower
attr title  "packets transmitted, sum(packetBytes)"
scalar ClientServerNetwork.server.ppp[0].ppp 	txState:timeavg 	0.0052459912942835
attr interpolationmode  sample-hold
attr title  "tx state, timeavg"
scalar ClientServerNetwork.server.ppp[0].ppp 	passedUpPk:count 	100
attr interpolationmode  none
attr source  packetSentToUpper
attr title  "packets passed to higher layer, count"
scalar ClientServerNetwork.server.ppp[0].ppp 	passedUpPk:sum(packetBytes) 	4450
attr interpolationmode  none
attr source  packetSentToUpper
attr title  "packets passed to higher layer, sum(packetBytes)"
scalar ClientServerNetwork.server.ppp[0].ppp 	rcvdPkFromHL:count 	75
attr interpolationmode  none
attr source  packetReceivedFromUpper
attr title  "packets received from higher layer, count"
scalar ClientServerNetwork.server.ppp[0].ppp 	rcvdPkFromHL:sum(packetBytes) 	11834
attr interpolationmode  none
attr source  packetReceivedFromUpper
attr title  "packets received from higher layer, sum(packetBytes)"
scalar ClientServerNetwork.server.ppp[0].ppp 	droppedPkBitError:count 	0
attr interpolationmode  none
attr source  dropPkBitError
attr title  "packets dropped/bit error, count"
scalar ClientServerNetwork.server.ppp[0].ppp 	droppedPkBitError:sum(packetBytes) 	0
attr interpolationmode  none
attr source  dropPkBitError
attr title  "packets dropped/bit error, sum(packetBytes)"
scalar ClientServerNetwork.router.networkLayer.arp 	failedResolution:count 	0
attr title  "ARP failed resolutions, count"
scalar ClientServerNetwork.router.networkLayer.arp 	initiatedResolution:count 	0
attr title  "ARP initiated resolutions, count"
scalar ClientServerNetwork.router.networkLayer.arp 	sentReplies:count 	0
attr title  "ARP replies sent, count"
scalar ClientServerNetwork.router.networkLayer.arp 	sentReq:count 	0
attr title  "ARP request sent, count"
scalar ClientServerNetwork.router.lo0.lo 	passedUpPk:count 	0
attr interpolationmode  none
attr source  packetSentToUpper
attr title  "packets passed to higher layer, count"
scalar ClientServerNetwork.router.lo0.lo 	passedUpPk:sum(packetBytes) 	0
attr interpolationmode  none
attr source  packetSentToUpper
attr title  "packets passed to higher layer, sum(packetBytes)"
scalar ClientServerNetwork.router.lo0.lo 	rcvdPkFromHL:count 	0
attr interpolationmode  none
attr source  packetReceivedFromUpper
attr title  "packets received from higher layer, count"
scalar ClientServerNetwork.router.lo0.lo 	rcvdPkFromHL:sum(packetBytes) 	0
attr interpolationmode  none
attr source  packetReceivedFromUpper
attr title  "packets received from higher layer, sum(packetBytes)"
scalar ClientServerNetwork.router.lo0.lo 	droppedPkBitError:count 	0
attr interpolationmode  none
attr source  dropPkBitError
attr title  "packets dropped/bit error, count"
scalar ClientServerNetwork.router.lo0.lo 	droppedPkBitError:sum(packetBytes) 	0
attr interpolationmode  none
attr source  dropPkBitError
attr title  "packets dropped/bit error, sum(packetBytes)"
scalar ClientServerNetwork.router.ppp[0].queue 	queueLength:max 	11
attr interpolationmode  sample-hold
attr title  "queue length, max"
scalar ClientServerNetwork.router.ppp[0].queue 	queueLength:timeavg 	1.9226765526167
attr interpolationmode  sample-hold
attr title  "queue length, timeavg"
statistic ClientServerNetwork.router.ppp[0].queue 	queueingTime:histogram
field count 219
field mean 0.00032317511026484
field stddev 0.00037407453795249
field sum 0.070775349148
field sqrsum 5.3377954932809e-05
field min 0
field max 0.001448358739
attr interpolationmode  none
attr title  "queueing time, histogram"
bin	-INF	0
bin	-0.0006470954925	0
bin	-0.0005608160935	0
bin	-0.0004745366945	0
bin	-0.0003882572955	0
bin	-0.0003019778965	0
bin	-0.0002156984975	0
bin	-0.0001294190985	0
bin	-4.31396995e-05	73
bin	4.31396995e-05	25
bin	0.0001294190985	17
bin	0.0002156984975	19
bin	0.0003019778965	12
bin	0.0003882572955	11
bin	0.0004745366945	10
bin	0.0005608160935	11
bin	0.0006470954925	12
bin	0.0007333748915	3
bin	0.0008196542905	6
bin	0.0009059336895	5
bin	0.0009922130885	2
bin	0.0010784924875	2
bin	0.0011647718865	1
bin	0.0012510512855	4
bin	0.0013373306845	5
bin	0.0014236100835	1
bin	0.0015098894825	0
bin	0.0015961688815	0
bin	0.0016824482805	0
bin	0.0017687276795	0
bin	0.0018550070785	0
bin	0.0019412864775	0
scalar ClientServerNetwork.router.ppp[0].queue 	dropPk:count 	0
attr interpolationmode  none
attr source  dropPkByQueue
attr title  "dropped packets, count"
scalar ClientServerNetwork.router.ppp[0].queue 	dropPk:sum(packetBytes) 	0
attr interpolationmode  none
attr source  dropPkByQueue
attr title  "dropped packets, sum(packetBytes)"
scalar ClientServerNetwork.router.ppp[0].queue 	rcvdPk:count 	219
attr interpolationmode  none
attr title  "received packets, count"
scalar ClientServerNetwork.router.ppp[0].queue 	rcvdPk:sum(packetBytes) 	24397
attr interpolationmode  none
attr title  "received packets, sum(packetBytes)"
scalar ClientServerNetwork.router.ppp[0].ppp 	droppedPkIfaceDown:count 	0
attr interpolationmode  none
attr source  dropPkIfaceDown
attr title  "packets dropped/interface down, count"
scalar ClientServerNetwork.router.ppp[0].ppp 	droppedPkIfaceDown:sum(packetBytes) 	0
attr interpolationmode  none
attr source  dropPkIfaceDown
attr title  "packets dropped/interface down, sum(packetBytes)"
scalar ClientServerNetwork.router.ppp[0].ppp 	rxPkOk:count 	220
attr interpolationmode  none
attr source  rxPkOk
attr title  "packets received OK, count"
scalar ClientServerNetwork.router.ppp[0].ppp 	rxPkOk:sum(packetBytes) 	29252
attr interpolationmode  none
attr source  rxPkOk
attr title  "packets received OK, sum(packetBytes)"
scalar ClientServerNetwork.router.ppp[0].ppp 	txPk:count 	219
attr interpolationmode  none
attr source  packetSentToLower
attr title  "packets transmitted, count"
scalar ClientServerNetwork.router.ppp[0].ppp 	txPk:sum(packetBytes) 	25930
attr interpolationmode  none
attr source  packetSentToLower
attr title  "packets transmitted, sum(packetBytes)"
scalar ClientServerNetwork.router.ppp[0].ppp 	txState:timeavg 	0.56352957474046
attr interpolationmode  sample-hold
attr title  "tx state, timeavg"
scalar ClientServerNetwork.router.ppp[0].ppp 	passedUpPk:count 	220
attr interpolationmode  none
attr source  packetSentToUpper
attr title  "packets passed to higher layer, count"
scalar ClientServerNetwork.router.ppp[0].ppp 	passedUpPk:sum(packetBytes) 	27712
attr interpolationmode  none
attr source  packetSentToUpper
attr title  "packets passed to higher layer, sum(packetBytes)"
scalar ClientServerNetwork.router.ppp[0].ppp 	rcvdPkFromHL:count 	219
attr interpolationmode  none
attr source  packetReceivedFromUpper
attr title  "packets received from higher layer, count"
scalar ClientServerNetwork.router.ppp[0].ppp 	rcvdPkFromHL:sum(packetBytes) 	24397
attr interpolationmode  none
attr source  packetReceivedFromUpper
attr title  "packets received from higher layer, sum(packetBytes)"
scalar ClientServerNetwork.router.ppp[0].ppp 	droppedPkBitError:count 	0
attr interpolationmode  none
attr source  dropPkBitError
attr title  "packets dropped/bit error, count"
scalar ClientServerNetwork.router.ppp[0].ppp 	droppedPkBitError:sum(packetBytes) 	0
attr interpolationmode  none
attr source  dropPkBitError
attr title  "packets dropped/bit error, sum(packetBytes)"
scalar ClientServerNetwork.router.ppp[1].queue 	queueLength:max 	21
attr interpolationmode  sample-hold
attr title  "queue length, max"
scalar ClientServerNetwork.router.ppp[1].queue 	queueLength:timeavg 	3.1756223086596
attr interpolationmode  sample-hold
attr title  "queue length, timeavg"
statistic ClientServerNetwork.router.ppp[1].queue 	queueingTime:histogram
field count 203
field mean 0.00057584897314286
field stddev 0.00063810958969258
field sum 0.116897341548
field sqrsum 0.00014956635148199
field min 0
field max 0.00246602864
attr interpolationmode  none
attr title  "queueing time, histogram"
bin	-INF	0
bin	-0.000945583877	0
bin	-0.00081950602673333	0
bin	-0.00069342817646667	0
bin	-0.0005673503262	0
bin	-0.00044127247593333	0
bin	-0.00031519462566667	0
bin	-0.0001891167754	0
bin	-6.3038925133333e-05	75
bin	6.3038925133333e-05	11
bin	0.0001891167754	4
bin	0.00031519462566667	17
bin	0.00044127247593333	19
bin	0.0005673503262	6
bin	0.00069342817646667	11
bin	0.00081950602673333	11
bin	0.000945583877	5
bin	0.0010716617272667	6
bin	0.0011977395775333	8
bin	0.0013238174278	3
bin	0.0014498952780667	5
bin	0.0015759731283333	2
bin	0.0017020509786	5
bin	0.0018281288288667	9
bin	0.0019542066791333	4
bin	0.0020802845294	1
bin	0.0022063623796667	0
bin	0.0023324402299333	0
bin	0.0024585180802	1
bin	0.0025845959304667	0
bin	0.0027106737807333	0
bin	0.002836751631	0
scalar ClientServerNetwork.router.ppp[1].queue 	dropPk:count 	0
attr interpolationmode  none
attr source  dropPkByQueue
attr title  "dropped packets, count"
scalar ClientServerNetwork.router.ppp[1].queue 	dropPk:sum(packetBytes) 	0
attr interpolationmode  none
attr source  dropPkByQueue
attr title  "dropped packets, sum(packetBytes)"
scalar ClientServerNetwork.router.ppp[1].queue 	rcvdPk:count 	203
attr interpolationmode  none
attr title  "received packets, count"
scalar ClientServerNetwork.router.ppp[1].queue 	rcvdPk:sum(packetBytes) 	26117
attr interpolationmode  none
attr title  "received packets, sum(packetBytes)"
scalar ClientServerNetwork.router.ppp[1].ppp 	droppedPkIfaceDown:count 	0
attr interpolationmode  none
attr source  dropPkIfaceDown
attr title  "packets dropped/interface down, count"
scalar ClientServerNetwork.router.ppp[1].ppp 	droppedPkIfaceDown:sum(packetBytes) 	0
attr interpolationmode  none
attr source  dropPkIfaceDown
attr title  "packets dropped/interface down, sum(packetBytes)"
scalar ClientServerNetwork.router.ppp[1].ppp 	rxPkOk:count 	204
attr interpolationmode  none
attr source  rxPkOk
attr title  "packets received OK, count"
scalar ClientServerNetwork.router.ppp[1].ppp 	rxPkOk:sum(packetBytes) 	23628
attr interpolationmode  none
attr source  rxPkOk
attr title  "packets received OK, sum(packetBytes)"
scalar ClientServerNetwork.router.ppp[1].ppp 	txPk:count 	203
attr interpolationmode  none
attr source  packetSentToLower
attr title  "packets transmitted, count"
scalar ClientServerNetwork.router.ppp[1].ppp 	txPk:sum(packetBytes) 	27538
attr interpolationmode  none
attr source  packetSentToLower
attr title  "packets transmitted, sum(packetBytes)"
scalar ClientServerNetwork.router.ppp[1].ppp 	txState:timeavg 	0.59847579750107
attr interpolationmode  sample-hold
attr title  "tx state, timeavg"
scalar ClientServerNetwork.router.ppp[1].ppp 	passedUpPk:count 	204
attr interpolationmode  none
attr source  packetSentToUpper
attr title  "packets passed to higher layer, count"
scalar ClientServerNetwork.router.ppp[1].ppp 	passedUpPk:sum(packetBytes) 	22200
attr interpolationmode  none
attr source  packetSentToUpper
attr title  "packets passed to higher layer, sum(packetBytes)"
scalar ClientServerNetwork.router.ppp[1].ppp 	rcvdPkFromHL:count 	203
attr interpolationmode  none
attr source  packetReceivedFromUpper
attr title  "packets received from higher layer, count"
scalar ClientServerNetwork.router.ppp[1].ppp 	rcvdPkFromHL:sum(packetBytes) 	26117
attr interpolationmode  none
attr source  packetReceivedFromUpper
attr title  "packets received from higher layer, sum(packetBytes)"
scalar ClientServerNetwork.router.ppp[1].ppp 	droppedPkBitError:count 	0
attr interpolationmode  none
attr source  dropPkBitError
attr title  "packets dropped/bit error, count"
scalar ClientServerNetwork.router.ppp[1].ppp 	droppedPkBitError:sum(packetBytes) 	0
attr interpolationmode  none
attr source  dropPkBitError
attr title  "packets dropped/bit error, sum(packetBytes)"
scalar ClientServerNetwork.router.ppp[2].queue 	queueLength:max 	20
attr interpolationmode  sample-hold
attr title  "queue length, max"
scalar ClientServerNetwork.router.ppp[2].queue 	queueLength:timeavg 	6.0234234417841
attr interpolationmode  sample-hold
attr title  "queue length, timeavg"
statistic ClientServerNetwork.router.ppp[2].queue 	queueingTime:histogram
field count 195
field mean 0.0011370631205949
field stddev 0.00086524710803537
field sum 0.221727308516
field sqrsum 0.00039735654158724
field min 0
field max 0.003228
attr interpolationmode  none
attr title  "queueing time, histogram"
bin	-INF	0
bin	-0.001152739895	0
bin	-0.00099904124233333	0
bin	-0.00084534258966667	0
bin	-0.000691643937	0
bin	-0.00053794528433333	0
bin	-0.00038424663166667	0
bin	-0.000230547979	0
bin	-7.6849326333333e-05	42
bin	7.6849326333333e-05	2
bin	0.000230547979	4
bin	0.00038424663166667	10
bin	0.00053794528433333	11
bin	0.000691643937	2
bin	0.00084534258966667	20
bin	0.00099904124233333	20
bin	0.001152739895	5
bin	0.0013064385476667	11
bin	0.0014601372003333	5
bin	0.001613835853	7
bin	0.0017675345056667	9
bin	0.0019212331583333	9
bin	0.002074931811	13
bin	0.0022286304636667	10
bin	0.0023823291163333	6
bin	0.002536027769	4
bin	0.0026897264216667	3
bin	0.0028434250743333	0
bin	0.002997123727	0
bin	0.0031508223796667	2
bin	0.0033045210323333	0
bin	0.003458219685	0
scalar ClientServerNetwork.router.ppp[2].queue 	dropPk:count 	0
attr interpolationmode  none
attr source  dropPkByQueue
attr title  "dropped packets, count"
scalar ClientServerNetwork.router.ppp[2].queue 	dropPk:sum(packetBytes) 	0
attr interpolationmode  none
attr source  dropPkByQueue
attr title  "dropped packets, sum(packetBytes)"
scalar ClientServerNetwork.router.ppp[2].queue 	rcvdPk:count 	195
attr interpolationmode  none
attr title  "received packets, count"
scalar ClientServerNetwork.router.ppp[2].queue 	rcvdPk:sum(packetBytes) 	29401
attr interpolationmode  none
attr title  "received packets, sum(packetBytes)"
scalar ClientServerNetwork.router.ppp[2].ppp 	droppedPkIfaceDown:count 	0
attr interpolationmode  none
attr source  dropPkIfaceDown
attr title  "packets dropped/interface down, count"
scalar ClientServerNetwork.router.ppp[2].ppp 	droppedPkIfaceDown:sum(packetBytes) 	0
attr interpolationmode  none
attr source  dropPkIfaceDown
attr title  "packets dropped/interface down, sum(packetBytes)"
scalar ClientServerNetwork.router.ppp[2].ppp 	rxPkOk:count 	196
attr interpolationmode  none
attr source  rxPkOk
attr title  "packets received OK, count"
scalar ClientServerNetwork.router.ppp[2].ppp 	rxPkOk:sum(packetBytes) 	18412
attr interpolationmode  none
attr source  rxPkOk
attr title  "packets received OK, sum(packetBytes)"
scalar ClientServerNetwork.router.ppp[2].ppp 	txPk:count 	195
attr interpolationmode  none
attr source  packetSentToLower
attr title  "packets transmitted, count"
scalar ClientServerNetwork.router.ppp[2].ppp 	txPk:sum(packetBytes) 	30766
attr interpolationmode  none
attr source  packetSentToLower
attr title  "packets transmitted, sum(packetBytes)"
scalar ClientServerNetwork.router.ppp[2].ppp 	txState:timeavg 	0.66862903572946
attr interpolationmode  sample-hold
attr title  "tx state, timeavg"
scalar ClientServerNetwork.router.ppp[2].ppp 	passedUpPk:count 	196
attr interpolationmode  none
attr source  packetSentToUpper
attr title  "packets passed to higher layer, count"
scalar ClientServerNetwork.router.ppp[2].ppp 	passedUpPk:sum(packetBytes) 	17040
attr interpolationmode  none
attr source  packetSentToUpper
attr title  "packets passed to higher layer, sum(packetBytes)"
scalar ClientServerNetwork.router.ppp[2].ppp 	rcvdPkFromHL:count 	195
attr interpolationmode  none
attr source  packetReceivedFromUpper
attr title  "packets received from higher layer, count"
scalar ClientServerNetwork.router.ppp[2].ppp 	rcvdPkFromHL:sum(packetBytes) 	29401
attr interpolationmode  none
attr source  packetReceivedFromUpper
attr title  "packets received from higher layer, sum(packetBytes)"
scalar ClientServerNetwork.router.ppp[2].ppp 	droppedPkBitError:count 	0
attr interpolationmode  none
attr source  dropPkBitError
attr title  "packets dropped/bit error, count"
scalar ClientServerNetwork.router.ppp[2].ppp 	droppedPkBitError:sum(packetBytes) 	0
attr interpolationmode  none
attr source  dropPkBitError
attr title  "packets dropped/bit error, sum(packetBytes)"
scalar ClientServerNetwork.router.ppp[3].queue 	queueLength:max 	32
attr interpolationmode  sample-hold
attr title  "queue length, max"
scalar ClientServerNetwork.router.ppp[3].queue 	queueLength:timeavg 	12.72120163367
attr interpolationmode  sample-hold
attr title  "queue length, timeavg"
statistic ClientServerNetwork.router.ppp[3].queue 	queueingTime:histogram
field count 203
field mean 0.0023067890907291
field stddev 0.0016374626292511
field sum 0.468278185418
field sqrsum 0.0016218383497118
field min 0
field max 0.005235496849
attr interpolationmode  none
attr title  "queueing time, histogram"
bin	-INF	0
bin	-0.0017841906405	0
bin	-0.0015462985551	0
bin	-0.0013084064697	0
bin	-0.0010705143843	0
bin	-0.0008326222989	0
bin	-0.0005947302135	0
bin	-0.0003568381281	0
bin	-0.0001189460427	28
bin	0.0001189460427	0
bin	0.0003568381281	7
bin	0.0005947302135	14
bin	0.0008326222989	16
bin	0.0010705143843	11
bin	0.0013084064697	16
bin	0.0015462985551	3
bin	0.0017841906405	9
bin	0.0020220827259	3
bin	0.0022599748113	1
bin	0.0024978668967	2
bin	0.0027357589821	2
bin	0.0029736510675	11
bin	0.0032115431529	7
bin	0.0034494352383	22
bin	0.0036873273237	11
bin	0.0039252194091	9
bin	0.0041631114945	3
bin	0.0044010035799	8
bin	0.0046388956653	11
bin	0.0048767877507	7
bin	0.0051146798361	2
bin	0.0053525719215	0
scalar ClientServerNetwork.router.ppp[3].queue 	dropPk:count 	0
attr interpolationmode  none
attr source  dropPkByQueue
attr title  "dropped packets, count"
scalar ClientServerNetwork.router.ppp[3].queue 	dropPk:sum(packetBytes) 	0
attr interpolationmode  none
attr source  dropPkByQueue
attr title  "dropped packets, sum(packetBytes)"
scalar ClientServerNetwork.router.ppp[3].queue 	rcvdPk:count 	203
attr interpolationmode  none
attr title  "received packets, count"
scalar ClientServerNetwork.router.ppp[3].queue 	rcvdPk:sum(packetBytes) 	34601
attr interpolationmode  none
attr title  "received packets, sum(packetBytes)"
scalar ClientServerNetwork.router.ppp[3].ppp 	droppedPkIfaceDown:count 	0
attr interpolationmode  none
attr source  dropPkIfaceDown
attr title  "packets dropped/interface down, count"
scalar ClientServerNetwork.router.ppp[3].ppp 	droppedPkIfaceDown:sum(packetBytes) 	0
attr interpolationmode  none
attr source  dropPkIfaceDown
attr title  "packets dropped/interface down, sum(packetBytes)"
scalar ClientServerNetwork.router.ppp[3].ppp 	rxPkOk:count 	204
attr interpolationmode  none
attr source  rxPkOk
attr title  "packets received OK, count"
scalar ClientServerNetwork.router.ppp[3].ppp 	rxPkOk:sum(packetBytes) 	15214
attr interpolationmode  none
attr source  rxPkOk
attr title  "packets received OK, sum(packetBytes)"
scalar ClientServerNetwork.router.ppp[3].ppp 	txPk:count 	203
attr interpolationmode  none
attr source  packetSentToLower
attr title  "packets transmitted, count"
scalar ClientServerNetwork.router.ppp[3].ppp 	txPk:sum(packetBytes) 	36022
attr interpolationmode  none
attr source  packetSentToLower
attr title  "packets transmitted, sum(packetBytes)"
scalar ClientServerNetwork.router.ppp[3].ppp 	txState:timeavg 	0.78285624146937
attr interpolationmode  sample-hold
attr title  "tx state, timeavg"
scalar ClientServerNetwork.router.ppp[3].ppp 	passedUpPk:count 	204
attr interpolationmode  none
attr source  packetSentToUpper
attr title  "packets passed to higher layer, count"
scalar ClientServerNetwork.router.ppp[3].ppp 	passedUpPk:sum(packetBytes) 	13786
attr interpolationmode  none
attr source  packetSentToUpper
attr title  "packets passed to higher layer, sum(packetBytes)"
scalar ClientServerNetwork.router.ppp[3].ppp 	rcvdPkFromHL:count 	203
attr interpolationmode  none
attr source  packetReceivedFromUpper
attr title  "packets received from higher layer, count"
scalar ClientServerNetwork.router.ppp[3].ppp 	rcvdPkFromHL:sum(packetBytes) 	34601
attr interpolationmode  none
attr source  packetReceivedFromUpper
attr title  "packets received from higher layer, sum(packetBytes)"
scalar ClientServerNetwork.router.ppp[3].ppp 	droppedPkBitError:count 	0
attr interpolationmode  none
attr source  dropPkBitError
attr title  "packets dropped/bit error, count"
scalar ClientServerNetwork.router.ppp[3].ppp 	droppedPkBitError:sum(packetBytes) 	0
attr interpolationmode  none
attr source  dropPkBitError
attr title  "packets dropped/bit error, sum(packetBytes)"
scalar ClientServerNetwork.router.ppp[4].queue 	queueLength:max 	32
attr interpolationmode  sample-hold
attr title  "queue length, max"
scalar ClientServerNetwork.router.ppp[4].queue 	queueLength:timeavg 	5.199124177738
attr interpolationmode  sample-hold
attr title  "queue length, timeavg"
statistic ClientServerNetwork.router.ppp[4].queue 	queueingTime:histogram
field count 203
field mean 0.00094277909272414
field stddev 0.0012100505819307
field sum 0.191384155823
field sqrsum 0.00047620590777642
field min 0
field max 0.003721880807
attr interpolationmode  none
attr title  "queueing time, histogram"
bin	-INF	0
bin	-0.001152940378	0
bin	-0.00099921499426667	0
bin	-0.00084548961053333	0
bin	-0.0006917642268	0
bin	-0.00053803884306667	0
bin	-0.00038431345933333	0
bin	-0.0002305880756	0
bin	-7.6862691866667e-05	69
bin	7.6862691866667e-05	17
bin	0.0002305880756	15
bin	0.00038431345933333	16
bin	0.00053803884306667	8
bin	0.0006917642268	5
bin	0.00084548961053333	10
bin	0.00099921499426667	10
bin	0.001152940378	7
bin	0.0013066657617333	1
bin	0.0014603911454667	1
bin	0.0016141165292	1
bin	0.0017678419129333	1
bin	0.0019215672966667	0
bin	0.0020752926804	1
bin	0.0022290180641333	5
bin	0.0023827434478667	0
bin	0.0025364688316	1
bin	0.0026901942153333	0
bin	0.0028439195990667	7
bin	0.0029976449828	5
bin	0.0031513703665333	4
bin	0.0033050957502667	6
bin	0.003458821134	13
scalar ClientServerNetwork.router.ppp[4].queue 	dropPk:count 	0
attr interpolationmode  none
attr source  dropPkByQueue
attr title  "dropped packets, count"
scalar ClientServerNetwork.router.ppp[4].queue 	dropPk:sum(packetBytes) 	0
attr interpolationmode  none
attr source  dropPkByQueue
attr title  "dropped packets, sum(packetBytes)"
scalar ClientServerNetwork.router.ppp[4].queue 	rcvdPk:count 	203
attr interpolationmode  none
attr title  "received packets, count"
scalar ClientServerNetwork.router.ppp[4].queue 	rcvdPk:sum(packetBytes) 	26117
attr interpolationmode  none
attr title  "received packets, sum(packetBytes)"
scalar ClientServerNetwork.router.ppp[4].ppp 	droppedPkIfaceDown:count 	0
attr interpolationmode  none
attr source  dropPkIfaceDown
attr title  "packets dropped/interface down, count"
scalar ClientServerNetwork.router.ppp[4].ppp 	droppedPkIfaceDown:sum(packetBytes) 	0
attr interpolationmode  none
attr source  dropPkIfaceDown
attr title  "packets dropped/interface down, sum(packetBytes)"
scalar ClientServerNetwork.router.ppp[4].ppp 	rxPkOk:count 	204
attr interpolationmode  none
attr source  rxPkOk
attr title  "packets received OK, count"
scalar ClientServerNetwork.router.ppp[4].ppp 	rxPkOk:sum(packetBytes) 	23628
attr interpolationmode  none
attr source  rxPkOk
attr title  "packets received OK, sum(packetBytes)"
scalar ClientServerNetwork.router.ppp[4].ppp 	txPk:count 	203
attr interpolationmode  none
attr source  packetSentToLower
attr title  "packets transmitted, count"
scalar ClientServerNetwork.router.ppp[4].ppp 	txPk:sum(packetBytes) 	27538
attr interpolationmode  none
attr source  packetSentToLower
attr title  "packets transmitted, sum(packetBytes)"
scalar ClientServerNetwork.router.ppp[4].ppp 	txState:timeavg 	0.59847579750107
attr interpolationmode  sample-hold
attr title  "tx state, timeavg"
scalar ClientServerNetwork.router.ppp[4].ppp 	passedUpPk:count 	204
attr interpolationmode  none
attr source  packetSentToUpper
attr title  "packets passed to higher layer, count"
scalar ClientServerNetwork.router.ppp[4].ppp 	passedUpPk:sum(packetBytes) 	22200
attr interpolationmode  none
attr source  packetSentToUpper
attr title  "packets passed to higher layer, sum(packetBytes)"
scalar ClientServerNetwork.router.ppp[4].ppp 	rcvdPkFromHL:count 	203
attr interpolationmode  none
attr source  packetReceivedFromUpper
attr title  "packets received from higher layer, count"
scalar ClientServerNetwork.router.ppp[4].ppp 	rcvdPkFromHL:sum(packetBytes) 	26117
attr interpolationmode  none
attr source  packetReceivedFromUpper
attr title  "packets received from higher layer, sum(packetBytes)"
scalar ClientServerNetwork.router.ppp[4].ppp 	droppedPkBitError:count 	0
attr interpolationmode  none
attr source  dropPkBitError
attr title  "packets dropped/bit error, count"
scalar ClientServerNetwork.router.ppp[4].ppp 	droppedPkBitError:sum(packetBytes) 	0
attr interpolationmode  none
attr source  dropPkBitError
attr title  "packets dropped/bit error, sum(packetBytes)"
scalar ClientServerNetwork.router.ppp[5].queue 	queueLength:max 	35
attr interpolationmode  sample-hold
attr title  "queue length, max"
scalar ClientServerNetwork.router.ppp[5].queue 	queueLength:timeavg 	15.770427440386
attr interpolationmode  sample-hold
attr title  "queue length, timeavg"
statistic ClientServerNetwork.router.ppp[5].queue 	queueingTime:histogram
field count 195
field mean 0.0029770398199282
field stddev 0.0019267875282478
field sum 0.580522764886
field sqrsum 0.0024484663621686
field min 0
field max 0.006573319193
attr interpolationmode  none
attr title  "queueing time, histogram"
bin	-INF	0
bin	-0.0023298141525	0
bin	-0.0020191722655	0
bin	-0.0017085303785	0
bin	-0.0013978884915	0
bin	-0.0010872466045	0
bin	-0.0007766047175	0
bin	-0.0004659628305	0
bin	-0.0001553209435	20
bin	0.0001553209435	5
bin	0.0004659628305	11
bin	0.0007766047175	9
bin	0.0010872466045	8
bin	0.0013978884915	4
bin	0.0017085303785	5
bin	0.0020191722655	9
bin	0.0023298141525	8
bin	0.0026404560395	22
bin	0.0029510979265	10
bin	0.0032617398135	15
bin	0.0035723817005	4
bin	0.0038830235875	5
bin	0.0041936654745	7
bin	0.0045043073615	5
bin	0.0048149492485	12
bin	0.0051255911355	12
bin	0.0054362330225	11
bin	0.0057468749095	6
bin	0.0060575167965	3
bin	0.0063681586835	4
bin	0.0066788005705	0
bin	0.0069894424575	0
scalar ClientServerNetwork.router.ppp[5].queue 	dropPk:count 	0
attr interpolationmode  none
attr source  dropPkByQueue
attr title  "dropped packets, count"
scalar ClientServerNetwork.router.ppp[5].queue 	dropPk:sum(packetBytes) 	0
attr interpolationmode  none
attr source  dropPkByQueue
attr title  "dropped packets, sum(packetBytes)"
scalar ClientServerNetwork.router.ppp[5].queue 	rcvdPk:count 	195
attr interpolationmode  none
attr title  "received packets, count"
scalar ClientServerNetwork.router.ppp[5].queue 	rcvdPk:sum(packetBytes) 	35461
attr interpolationmode  none
attr title  "received packets, sum(packetBytes)"
scalar ClientServerNetwork.router.ppp[5].ppp 	droppedPkIfaceDown:count 	0
attr interpolationmode  none
attr source  dropPkIfaceDown
attr title  "packets dropped/interface down, count"
scalar ClientServerNetwork.router.ppp[5].ppp 	droppedPkIfaceDown:sum(packetBytes) 	0
attr interpolationmode  none
attr source  dropPkIfaceDown
attr title  "packets dropped/interface down, sum(packetBytes)"
scalar ClientServerNetwork.router.ppp[5].ppp 	rxPkOk:count 	196
attr interpolationmode  none
attr source  rxPkOk
attr title  "packets received OK, count"
scalar ClientServerNetwork.router.ppp[5].ppp 	rxPkOk:sum(packetBytes) 	12402
attr interpolationmode  none
attr source  rxPkOk
attr title  "packets received OK, sum(packetBytes)"
scalar ClientServerNetwork.router.ppp[5].ppp 	txPk:count 	195
attr interpolationmode  none
attr source  packetSentToLower
attr title  "packets transmitted, count"
scalar ClientServerNetwork.router.ppp[5].ppp 	txPk:sum(packetBytes) 	36826
attr interpolationmode  none
attr source  packetSentToLower
attr title  "packets transmitted, sum(packetBytes)"
scalar ClientServerNetwork.router.ppp[5].ppp 	txState:timeavg 	0.80032935284968
attr interpolationmode  sample-hold
attr title  "tx state, timeavg"
scalar ClientServerNetwork.router.ppp[5].ppp 	passedUpPk:count 	196
attr interpolationmode  none
attr source  packetSentToUpper
attr title  "packets passed to higher layer, count"
scalar ClientServerNetwork.router.ppp[5].ppp 	passedUpPk:sum(packetBytes) 	11030
attr interpolationmode  none
attr source  packetSentToUpper
attr title  "packets passed to higher layer, sum(packetBytes)"
scalar ClientServerNetwork.router.ppp[5].ppp 	rcvdPkFromHL:count 	195
attr interpolationmode  none
attr source  packetReceivedFromUpper
attr title  "packets received from higher layer, count"
scalar ClientServerNetwork.router.ppp[5].ppp 	rcvdPkFromHL:sum(packetBytes) 	35461
attr interpolationmode  none
attr source  packetReceivedFromUpper
attr title  "packets received from higher layer, sum(packetBytes)"
scalar ClientServerNetwork.router.ppp[5].ppp 	droppedPkBitError:count 	0
attr interpolationmode  none
attr source  dropPkBitError
attr title  "packets dropped/bit error, count"
scalar ClientServerNetwork.router.ppp[5].ppp 	droppedPkBitError:sum(packetBytes) 	0
attr interpolationmode  none
attr source  dropPkBitError
attr title  "packets dropped/bit error, sum(packetBytes)"
scalar ClientServerNetwork.router.ppp[6].queue 	queueLength:max 	23
attr interpolationmode  sample-hold
attr title  "queue length, max"
scalar ClientServerNetwork.router.ppp[6].queue 	queueLength:timeavg 	4.3195464800077
attr interpolationmode  sample-hold
attr title  "queue length, timeavg"
statistic ClientServerNetwork.router.ppp[6].queue 	queueingTime:histogram
field count 219
field mean 0.00072605551259817
field stddev 0.0008433032997648
field sum 0.159006157259
field sqrsum 0.00027048027629088
field min 0
field max 0.002974767754
attr interpolationmode  none
attr title  "queueing time, histogram"
bin	-INF	0
bin	-0.000803108306	0
bin	-0.00069602719853333	0
bin	-0.00058894609106667	0
bin	-0.0004818649836	0
bin	-0.00037478387613333	0
bin	-0.00026770276866667	0
bin	-0.0001606216612	0
bin	-5.3540553733333e-05	86
bin	5.3540553733333e-05	9
bin	0.0001606216612	2
bin	0.00026770276866667	12
bin	0.00037478387613333	5
bin	0.0004818649836	2
bin	0.00058894609106667	7
bin	0.00069602719853333	9
bin	0.000803108306	6
bin	0.00091018941346667	7
bin	0.0010172705209333	17
bin	0.0011243516284	2
bin	0.0012314327358667	10
bin	0.0013385138433333	3
bin	0.0014455949508	9
bin	0.0015526760582667	10
bin	0.0016597571657333	0
bin	0.0017668382732	0
bin	0.0018739193806667	0
bin	0.0019810004881333	1
bin	0.0020880815956	2
bin	0.0021951627030667	0
bin	0.0023022438105333	1
bin	0.002409324918	19
scalar ClientServerNetwork.router.ppp[6].queue 	dropPk:count 	0
attr interpolationmode  none
attr source  dropPkByQueue
attr title  "dropped packets, count"
scalar ClientServerNetwork.router.ppp[6].queue 	dropPk:sum(packetBytes) 	0
attr interpolationmode  none
attr source  dropPkByQueue
attr title  "dropped packets, sum(packetBytes)"
scalar ClientServerNetwork.router.ppp[6].queue 	rcvdPk:count 	219
attr interpolationmode  none
attr title  "received packets, count"
scalar ClientServerNetwork.router.ppp[6].queue 	rcvdPk:sum(packetBytes) 	24397
attr interpolationmode  none
attr title  "received packets, sum(packetBytes)"
scalar ClientServerNetwork.router.ppp[6].ppp 	droppedPkIfaceDown:count 	0
attr interpolationmode  none
attr source  dropPkIfaceDown
attr title  "packets dropped/interface down, count"
scalar ClientServerNetwork.router.ppp[6].ppp 	droppedPkIfaceDown:sum(packetBytes) 	0
attr interpolationmode  none
attr source  dropPkIfaceDown
attr title  "packets dropped/interface down, sum(packetBytes)"
scalar ClientServerNetwork.router.ppp[6].ppp 	rxPkOk:count 	220
attr interpolationmode  none
attr source  rxPkOk
attr title  "packets received OK, count"
scalar ClientServerNetwork.router.ppp[6].ppp 	rxPkOk:sum(packetBytes) 	29252
attr interpolationmode  none
attr source  rxPkOk
attr title  "packets received OK, sum(packetBytes)"
scalar ClientServerNetwork.router.ppp[6].ppp 	txPk:count 	219
attr interpolationmode  none
attr source  packetSentToLower
attr title  "packets transmitted, count"
scalar ClientServerNetwork.router.ppp[6].ppp 	txPk:sum(packetBytes) 	25930
attr interpolationmode  none
attr source  packetSentToLower
attr title  "packets transmitted, sum(packetBytes)"
scalar ClientServerNetwork.router.ppp[6].ppp 	txState:timeavg 	0.56352957474046
attr interpolationmode  sample-hold
attr title  "tx state, timeavg"
scalar ClientServerNetwork.router.ppp[6].ppp 	passedUpPk:count 	220
attr interpolationmode  none
attr source  packetSentToUpper
attr title  "packets passed to higher layer, count"
scalar ClientServerNetwork.router.ppp[6].ppp 	passedUpPk:sum(packetBytes) 	27712
attr interpolationmode  none
attr source  packetSentToUpper
attr title  "packets passed to higher layer, sum(packetBytes)"
scalar ClientServerNetwork.router.ppp[6].ppp 	rcvdPkFromHL:count 	219
attr interpolationmode  none
attr source  packetReceivedFromUpper
attr title  "packets received from higher layer, count"
scalar ClientServerNetwork.router.ppp[6].ppp 	rcvdPkFromHL:sum(packetBytes) 	24397
attr interpolationmode  none
attr source  packetReceivedFromUpper
attr title  "packets received from higher layer, sum(packetBytes)"
scalar ClientServerNetwork.router.ppp[6].ppp 	droppedPkBitError:count 	0
attr interpolationmode  none
attr source  dropPkBitError
attr title  "packets dropped/bit error, count"
scalar ClientServerNetwork.router.ppp[6].ppp 	droppedPkBitError:sum(packetBytes) 	0
attr interpolationmode  none
attr source  dropPkBitError
attr title  "packets dropped/bit error, sum(packetBytes)"
scalar ClientServerNetwork.router.ppp[7].queue 	queueLength:max 	30
attr interpolationmode  sample-hold
attr title  "queue length, max"
scalar ClientServerNetwork.router.ppp[7].queue 	queueLength:timeavg 	14.054239279145
attr interpolationmode  sample-hold
attr title  "queue length, timeavg"
statistic ClientServerNetwork.router.ppp[7].queue 	queueingTime:histogram
field count 203
field mean 0.0025485144234975
field stddev 0.0016206600981001
field sum 0.51734842797
field sqrsum 0.0018490308396772
field min 0
field max 0.006421339114
attr interpolationmode  none
attr title  "queueing time, histogram"
bin	-INF	0
bin	-0.0017846994915	0
bin	-0.0015467395593	0
bin	-0.0013087796271	0
bin	-0.0010708196949	0
bin	-0.0008328597627	0
bin	-0.0005948998305	0
bin	-0.0003569398983	0
bin	-0.0001189799661	26
bin	0.0001189799661	3
bin	0.0003569398983	2
bin	0.0005948998305	9
bin	0.0008328597627	17
bin	0.0010708196949	7
bin	0.0013087796271	5
bin	0.0015467395593	3
bin	0.0017846994915	1
bin	0.0020226594237	6
bin	0.0022606193559	4
bin	0.0024985792881	2
bin	0.0027365392203	16
bin	0.0029744991525	15
bin	0.0032124590847	17
bin	0.0034504190169	21
bin	0.0036883789491	12
bin	0.0039263388813	11
bin	0.0041642988135	3
bin	0.0044022587457	5
bin	0.0046402186779	9
bin	0.0048781786101	2
bin	0.0051161385423	1
bin	0.0053540984745	6
scalar ClientServerNetwork.router.ppp[7].queue 	dropPk:count 	0
attr interpolationmode  none
attr source  dropPkByQueue
attr title  "dropped packets, count"
scalar ClientServerNetwork.router.ppp[7].queue 	dropPk:sum(packetBytes) 	0
attr interpolationmode  none
attr source  dropPkByQueue
attr title  "dropped packets, sum(packetBytes)"
scalar ClientServerNetwork.router.ppp[7].queue 	rcvdPk:count 	203
attr interpolationmode  none
attr title  "received packets, count"
scalar ClientServerNetwork.router.ppp[7].queue 	rcvdPk:sum(packetBytes) 	34601
attr interpolationmode  none
attr title  "received packets, sum(packetBytes)"
scalar ClientServerNetwork.router.ppp[7].ppp 	droppedPkIfaceDown:count 	0
attr interpolationmode  none
attr source  dropPkIfaceDown
attr title  "packets dropped/interface down, count"
scalar ClientServerNetwork.router.ppp[7].ppp 	droppedPkIfaceDown:sum(packetBytes) 	0
attr interpolationmode  none
attr source  dropPkIfaceDown
attr title  "packets dropped/interface down, sum(packetBytes)"
scalar ClientServerNetwork.router.ppp[7].ppp 	rxPkOk:count 	204
attr interpolationmode  none
attr source  rxPkOk
attr title  "packets received OK, count"
scalar ClientServerNetwork.router.ppp[7].ppp 	rxPkOk:sum(packetBytes) 	15214
attr interpolationmode  none
attr source  rxPkOk
attr title  "packets received OK, sum(packetBytes)"
scalar ClientServerNetwork.router.ppp[7].ppp 	txPk:count 	203
attr interpolationmode  none
attr source  packetSentToLower
attr title  "packets transmitted, count"
scalar ClientServerNetwork.router.ppp[7].ppp 	txPk:sum(packetBytes) 	36022
attr interpolationmode  none
attr source  packetSentToLower
attr title  "packets transmitted, sum(packetBytes)"
scalar ClientServerNetwork.router.ppp[7].ppp 	txState:timeavg 	0.78285624146937
attr interpolationmode  sample-hold
attr title  "tx state, timeavg"
scalar ClientServerNetwork.router.ppp[7].ppp 	passedUpPk:count 	204
attr interpolationmode  none
attr source  packetSentToUpper
attr title  "packets passed to higher layer, count"
scalar ClientServerNetwork.router.ppp[7].ppp 	passedUpPk:sum(packetBytes) 	13786
attr interpolationmode  none
attr source  packetSentToUpper
attr title  "packets passed to higher layer, sum(packetBytes)"
scalar ClientServerNetwork.router.ppp[7].ppp 	rcvdPkFromHL:count 	203
attr interpolationmode  none
attr source  packetReceivedFromUpper
attr title  "packets received from higher layer, count"
scalar ClientServerNetwork.router.ppp[7].ppp 	rcvdPkFromHL:sum(packetBytes) 	34601
attr interpolationmode  none
attr source  packetReceivedFromUpper
attr title  "packets received from higher layer, sum(packetBytes)"
scalar ClientServerNetwork.router.ppp[7].ppp 	droppedPkBitError:count 	0
attr interpolationmode  none
attr source  dropPkBitError
attr title  "packets dropped/bit error, count"
scalar ClientServerNetwork.router.ppp[7].ppp 	droppedPkBitError:sum(packetBytes) 	0
attr interpolationmode  none
attr source  dropPkBitError
attr title  "packets dropped/bit error, sum(packetBytes)"
scalar ClientServerNetwork.router.ppp[8].queue 	queueLength:max 	8
attr interpolationmode  sample-hold
attr title  "queue length, max"
scalar ClientServerNetwork.router.ppp[8].queue 	queueLength:timeavg 	0.63074613550037
attr interpolationmode  sample-hold
attr title  "queue length, timeavg"
statistic ClientServerNetwork.router.ppp[8].queue 	queueingTime:histogram
field count 203
field mean 0.00011437585428571
field stddev 0.00018648164289479
field sum 0.02321829842
field sqrsum 9.6802441504695e-06
field min 0
field max 0.00079387071
attr interpolationmode  none
attr title  "queueing time, histogram"
bin	-INF	0
bin	-0.000396935355	0
bin	-0.000344010641	0
bin	-0.000291085927	0
bin	-0.000238161213	0
bin	-0.000185236499	0
bin	-0.000132311785	0
bin	-7.9387071e-05	0
bin	-2.6462357e-05	107
bin	2.6462357e-05	29
bin	7.9387071e-05	10
bin	0.000132311785	17
bin	0.000185236499	3
bin	0.000238161213	3
bin	0.000291085927	5
bin	0.000344010641	7
bin	0.000396935355	6
bin	0.000449860069	4
bin	0.000502784783	3
bin	0.000555709497	1
bin	0.000608634211	2
bin	0.000661558925	0
bin	0.000714483639	4
bin	0.000767408353	2
bin	0.000820333067	0
bin	0.000873257781	0
bin	0.000926182495	0
bin	0.000979107209	0
bin	0.001032031923	0
bin	0.001084956637	0
bin	0.001137881351	0
bin	0.001190806065	0
scalar ClientServerNetwork.router.ppp[8].queue 	dropPk:count 	0
attr interpolationmode  none
attr source  dropPkByQueue
attr title  "dropped packets, count"
scalar ClientServerNetwork.router.ppp[8].queue 	dropPk:sum(packetBytes) 	0
attr interpolationmode  none
attr source  dropPkByQueue
attr title  "dropped packets, sum(packetBytes)"
scalar ClientServerNetwork.router.ppp[8].queue 	rcvdPk:count 	203
attr interpolationmode  none
attr title  "received packets, count"
scalar ClientServerNetwork.router.ppp[8].queue 	rcvdPk:sum(packetBytes) 	16421
attr interpolationmode  none
attr title  "received packets, sum(packetBytes)"
scalar ClientServerNetwork.router.ppp[8].ppp 	droppedPkIfaceDown:count 	0
attr interpolationmode  none
attr source  dropPkIfaceDown
attr title  "packets dropped/interface down, count"
scalar ClientServerNetwork.router.ppp[8].ppp 	droppedPkIfaceDown:sum(packetBytes) 	0
attr interpolationmode  none
attr source  dropPkIfaceDown
attr title  "packets dropped/interface down, sum(packetBytes)"
scalar ClientServerNetwork.router.ppp[8].ppp 	rxPkOk:count 	204
attr interpolationmode  none
attr source  rxPkOk
attr title  "packets received OK, count"
scalar ClientServerNetwork.router.ppp[8].ppp 	rxPkOk:sum(packetBytes) 	33244
attr interpolationmode  none
attr source  rxPkOk
attr title  "packets received OK, sum(packetBytes)"
scalar ClientServerNetwork.router.ppp[8].ppp 	txPk:count 	203
attr interpolationmode  none
attr source  packetSentToLower
attr title  "packets transmitted, count"
scalar ClientServerNetwork.router.ppp[8].ppp 	txPk:sum(packetBytes) 	17842
attr interpolationmode  none
attr source  packetSentToLower
attr title  "packets transmitted, sum(packetBytes)"
scalar ClientServerNetwork.router.ppp[8].ppp 	txState:timeavg 	0.38775529010873
attr interpolationmode  sample-hold
attr title  "tx state, timeavg"
scalar ClientServerNetwork.router.ppp[8].ppp 	passedUpPk:count 	204
attr interpolationmode  none
attr source  packetSentToUpper
attr title  "packets passed to higher layer, count"
scalar ClientServerNetwork.router.ppp[8].ppp 	passedUpPk:sum(packetBytes) 	31816
attr interpolationmode  none
attr source  packetSentToUpper
attr title  "packets passed to higher layer, sum(packetBytes)"
scalar ClientServerNetwork.router.ppp[8].ppp 	rcvdPkFromHL:count 	203
attr interpolationmode  none
attr source  packetReceivedFromUpper
attr title  "packets received from higher layer, count"
scalar ClientServerNetwork.router.ppp[8].ppp 	rcvdPkFromHL:sum(packetBytes) 	16421
attr interpolationmode  none
attr source  packetReceivedFromUpper
attr title  "packets received from higher layer, sum(packetBytes)"
scalar ClientServerNetwork.router.ppp[8].ppp 	droppedPkBitError:count 	0
attr interpolationmode  none
attr source  dropPkBitError
attr title  "packets dropped/bit error, count"
scalar ClientServerNetwork.router.ppp[8].ppp 	droppedPkBitError:sum(packetBytes) 	0
attr interpolationmode  none
attr source  dropPkBitError
attr title  "packets dropped/bit error, sum(packetBytes)"
scalar ClientServerNetwork.router.ppp[9].queue 	queueLength:max 	37
attr interpolationmode  sample-hold
attr title  "queue length, max"
scalar ClientServerNetwork.router.ppp[9].queue 	queueLength:timeavg 	8.0462801914471
attr interpolationmode  sample-hold
attr title  "queue length, timeavg"
statistic ClientServerNetwork.router.ppp[9].queue 	queueingTime:histogram
field count 195
field mean 0.0015189250020513
field stddev 0.0015225548944442
field sum 0.2961903754
field sqrsum 0.00089961660744165
field min 0
field max 0.004582777996
attr interpolationmode  none
attr title  "queueing time, histogram"
bin	-INF	0
bin	-0.0018582045075	0
bin	-0.0016104439065	0
bin	-0.0013626833055	0
bin	-0.0011149227045	0
bin	-0.0008671621035	0
bin	-0.0006194015025	0
bin	-0.0003716409015	0
bin	-0.0001238803005	57
bin	0.0001238803005	17
bin	0.0003716409015	5
bin	0.0006194015025	6
bin	0.0008671621035	7
bin	0.0011149227045	16
bin	0.0013626833055	11
bin	0.0016104439065	3
bin	0.0018582045075	12
bin	0.0021059651085	12
bin	0.0023537257095	8
bin	0.0026014863105	1
bin	0.0028492469115	1
bin	0.0030970075125	2
bin	0.0033447681135	3
bin	0.0035925287145	2
bin	0.0038402893155	5
bin	0.0040880499165	22
bin	0.0043358105175	5
bin	0.0045835711185	0
bin	0.0048313317195	0
bin	0.0050790923205	0
bin	0.0053268529215	0
bin	0.0055746135225	0
scalar ClientServerNetwork.router.ppp[9].queue 	dropPk:count 	0
attr interpolationmode  none
attr source  dropPkByQueue
attr title  "dropped packets, count"
scalar ClientServerNetwork.router.ppp[9].queue 	dropPk:sum(packetBytes) 	0
attr interpolationmode  none
attr source  dropPkByQueue
attr title  "dropped packets, sum(packetBytes)"
scalar ClientServerNetwork.router.ppp[9].queue 	rcvdPk:count 	195
attr interpolationmode  none
attr title  "received packets, count"
scalar ClientServerNetwork.router.ppp[9].queue 	rcvdPk:sum(packetBytes) 	26977
attr interpolationmode  none
attr title  "received packets, sum(packetBytes)"
scalar ClientServerNetwork.router.ppp[9].ppp 	droppedPkIfaceDown:count 	0
attr interpolationmode  none
attr source  dropPkIfaceDown
attr title  "packets dropped/interface down, count"
scalar ClientServerNetwork.router.ppp[9].ppp 	droppedPkIfaceDown:sum(packetBytes) 	0
attr interpolationmode  none
attr source  dropPkIfaceDown
attr title  "packets dropped/interface down, sum(packetBytes)"
scalar ClientServerNetwork.router.ppp[9].ppp 	rxPkOk:count 	196
attr interpolationmode  none
attr source  rxPkOk
attr title  "packets received OK, count"
scalar ClientServerNetwork.router.ppp[9].ppp 	rxPkOk:sum(packetBytes) 	20816
attr interpolationmode  none
attr source  rxPkOk
attr title  "packets received OK, sum(packetBytes)"
scalar ClientServerNetwork.router.ppp[9].ppp 	txPk:count 	195
attr interpolationmode  none
attr source  packetSentToLower
attr title  "packets transmitted, count"
scalar ClientServerNetwork.router.ppp[9].ppp 	txPk:sum(packetBytes) 	28342
attr interpolationmode  none
attr source  packetSentToLower
attr title  "packets transmitted, sum(packetBytes)"
scalar ClientServerNetwork.router.ppp[9].ppp 	txState:timeavg 	0.61594890888138
attr interpolationmode  sample-hold
attr title  "tx state, timeavg"
scalar ClientServerNetwork.router.ppp[9].ppp 	passedUpPk:count 	196
attr interpolationmode  none
attr source  packetSentToUpper
attr title  "packets passed to higher layer, count"
scalar ClientServerNetwork.router.ppp[9].ppp 	passedUpPk:sum(packetBytes) 	19444
attr interpolationmode  none
attr source  packetSentToUpper
attr title  "packets passed to higher layer, sum(packetBytes)"
scalar ClientServerNetwork.router.ppp[9].ppp 	rcvdPkFromHL:count 	195
attr interpolationmode  none
attr source  packetReceivedFromUpper
attr title  "packets received from higher layer, count"
scalar ClientServerNetwork.router.ppp[9].ppp 	rcvdPkFromHL:sum(packetBytes) 	26977
attr interpolationmode  none
attr source  packetReceivedFromUpper
attr title  "packets received from higher layer, sum(packetBytes)"
scalar ClientServerNetwork.router.ppp[9].ppp 	droppedPkBitError:count 	0
attr interpolationmode  none
attr source  dropPkBitError
attr title  "packets dropped/bit error, count"
scalar ClientServerNetwork.router.ppp[9].ppp 	droppedPkBitError:sum(packetBytes) 	0
attr interpolationmode  none
attr source  dropPkBitError
attr title  "packets dropped/bit error, sum(packetBytes)"
scalar ClientServerNetwork.router.ppp[10].queue 	queueLength:max 	23
attr interpolationmode  sample-hold
attr title  "queue length, max"
scalar ClientServerNetwork.router.ppp[10].queue 	queueLength:timeavg 	5.6492946955066
attr interpolationmode  sample-hold
attr title  "queue length, timeavg"
statistic ClientServerNetwork.router.ppp[10].queue 	queueingTime:histogram
field count 195
field mean 0.0010664375031436
field stddev 0.0010139617256329
field sum 0.207955313113
field sqrsum 0.00042122631080507
field min 0
field max 0.003991119763
attr interpolationmode  none
attr title  "queueing time, histogram"
bin	-INF	0
bin	-0.0006640283225	0
bin	-0.00057549121283333	0
bin	-0.00048695410316667	0
bin	-0.0003984169935	0
bin	-0.00030987988383333	0
bin	-0.00022134277416667	0
bin	-0.0001328056645	0
bin	-4.4268554833333e-05	34
bin	4.4268554833333e-05	13
bin	0.0001328056645	5
bin	0.00022134277416667	3
bin	0.00030987988383333	2
bin	0.0003984169935	4
bin	0.00048695410316667	9
bin	0.00057549121283333	4
bin	0.0006640283225	9
bin	0.00075256543216667	13
bin	0.00084110254183333	14
bin	0.0009296396515	9
bin	0.0010181767611667	3
bin	0.0011067138708333	0
bin	0.0011952509805	12
bin	0.0012837880901667	8
bin	0.0013723251998333	1
bin	0.0014608623095	3
bin	0.0015493994191667	7
bin	0.0016379365288333	3
bin	0.0017264736385	2
bin	0.0018150107481667	4
bin	0.0019035478578333	4
bin	0.0019920849675	29
scalar ClientServerNetwork.router.ppp[10].queue 	dropPk:count 	0
attr interpolationmode  none
attr source  dropPkByQueue
attr title  "dropped packets, count"
scalar ClientServerNetwork.router.ppp[10].queue 	dropPk:sum(packetBytes) 	0
attr interpolationmode  none
attr source  dropPkByQueue
attr title  "dropped packets, sum(packetBytes)"
scalar ClientServerNetwork.router.ppp[10].queue 	rcvdPk:count 	195
attr interpolationmode  none
attr title  "received packets, count"
scalar ClientServerNetwork.router.ppp[10].queue 	rcvdPk:sum(packetBytes) 	28189
attr interpolationmode  none
attr title  "received packets, sum(packetBytes)"
scalar ClientServerNetwork.router.ppp[10].ppp 	droppedPkIfaceDown:count 	0
attr interpolationmode  none
attr source  dropPkIfaceDown
attr title  "packets dropped/interface down, count"
scalar ClientServerNetwork.router.ppp[10].ppp 	droppedPkIfaceDown:sum(packetBytes) 	0
attr interpolationmode  none
attr source  dropPkIfaceDown
attr title  "packets dropped/interface down, sum(packetBytes)"
scalar ClientServerNetwork.router.ppp[10].ppp 	rxPkOk:count 	196
attr interpolationmode  none
attr source  rxPkOk
attr title  "packets received OK, count"
scalar ClientServerNetwork.router.ppp[10].ppp 	rxPkOk:sum(packetBytes) 	19614
attr interpolationmode  none
attr source  rxPkOk
attr title  "packets received OK, sum(packetBytes)"
scalar ClientServerNetwork.router.ppp[10].ppp 	txPk:count 	195
attr interpolationmode  none
attr source  packetSentToLower
attr title  "packets transmitted, count"
scalar ClientServerNetwork.router.ppp[10].ppp 	txPk:sum(packetBytes) 	29554
attr interpolationmode  none
attr source  packetSentToLower
attr title  "packets transmitted, sum(packetBytes)"
scalar ClientServerNetwork.router.ppp[10].ppp 	txState:timeavg 	0.64228897230542
attr interpolationmode  sample-hold
attr title  "tx state, timeavg"
scalar ClientServerNetwork.router.ppp[10].ppp 	passedUpPk:count 	196
attr interpolationmode  none
attr source  packetSentToUpper
attr title  "packets passed to higher layer, count"
scalar ClientServerNetwork.router.ppp[10].ppp 	passedUpPk:sum(packetBytes) 	18242
attr interpolationmode  none
attr source  packetSentToUpper
attr title  "packets passed to higher layer, sum(packetBytes)"
scalar ClientServerNetwork.router.ppp[10].ppp 	rcvdPkFromHL:count 	195
attr interpolationmode  none
attr source  packetReceivedFromUpper
attr title  "packets received from higher layer, count"
scalar ClientServerNetwork.router.ppp[10].ppp 	rcvdPkFromHL:sum(packetBytes) 	28189
attr interpolationmode  none
attr source  packetReceivedFromUpper
attr title  "packets received from higher layer, sum(packetBytes)"
scalar ClientServerNetwork.router.ppp[10].ppp 	droppedPkBitError:count 	0
attr interpolationmode  none
attr source  dropPkBitError
attr title  "packets dropped/bit error, count"
scalar ClientServerNetwork.router.ppp[10].ppp 	droppedPkBitError:sum(packetBytes) 	0
attr interpolationmode  none
attr source  dropPkBitError
attr title  "packets dropped/bit error, sum(packetBytes)"
scalar ClientServerNetwork.router.ppp[11].queue 	queueLength:max 	9
attr interpolationmode  sample-hold
attr title  "queue length, max"
scalar ClientServerNetwork.router.ppp[11].queue 	queueLength:timeavg 	0.56800119297255
attr interpolationmode  sample-hold
attr title  "queue length, timeavg"
statistic ClientServerNetwork.router.ppp[11].queue 	queueingTime:histogram
field count 203
field mean 0.00010299804949261
field stddev 0.00017023356587222
field sum 0.020908604047
field sqrsum 8.0073977582677e-06
field min 0
field max 0.000824168981
attr interpolationmode  none
attr title  "queueing time, histogram"
bin	-INF	0
bin	-0.0004120844905	0
bin	-0.00035713989176667	0
bin	-0.00030219529303333	0
bin	-0.0002472506943	0
bin	-0.00019230609556667	0
bin	-0.00013736149683333	0
bin	-8.24168981e-05	0
bin	-2.7472299366667e-05	123
bin	2.7472299366667e-05	19
bin	8.24168981e-05	9
bin	0.00013736149683333	5
bin	0.00019230609556667	7
bin	0.0002472506943	8
bin	0.00030219529303333	10
bin	0.00035713989176667	8
bin	0.0004120844905	3
bin	0.00046702908923333	2
bin	0.00052197368796667	6
bin	0.0005769182867	1
bin	0.00063186288543333	0
bin	0.00068680748416667	0
bin	0.0007417520829	1
bin	0.00079669668163333	1
bin	0.00085164128036667	0
bin	0.0009065858791	0
bin	0.00096153047783333	0
bin	0.0010164750765667	0
bin	0.0010714196753	0
bin	0.0011263642740333	0
bin	0.0011813088727667	0
bin	0.0012362534715	0
scalar ClientServerNetwork.router.ppp[11].queue 	dropPk:count 	0
attr interpolationmode  none
attr source  dropPkByQueue
attr title  "dropped packets, count"
scalar ClientServerNetwork.router.ppp[11].queue 	dropPk:sum(packetBytes) 	0
attr interpolationmode  none
attr source  dropPkByQueue
attr title  "dropped packets, sum(packetBytes)"
scalar ClientServerNetwork.router.ppp[11].queue 	rcvdPk:count 	203
attr interpolationmode  none
attr title  "received packets, count"
scalar ClientServerNetwork.router.ppp[11].queue 	rcvdPk:sum(packetBytes) 	13997
attr interpolationmode  none
attr title  "received packets, sum(packetBytes)"
scalar ClientServerNetwork.router.ppp[11].ppp 	droppedPkIfaceDown:count 	0
attr interpolationmode  none
attr source  dropPkIfaceDown
attr title  "packets dropped/interface down, count"
scalar ClientServerNetwork.router.ppp[11].ppp 	droppedPkIfaceDown:sum(packetBytes) 	0
attr interpolationmode  none
attr source  dropPkIfaceDown
attr title  "packets dropped/interface down, sum(packetBytes)"
scalar ClientServerNetwork.router.ppp[11].ppp 	rxPkOk:count 	204
attr interpolationmode  none
attr source  rxPkOk
attr title  "packets received OK, count"
scalar ClientServerNetwork.router.ppp[11].ppp 	rxPkOk:sum(packetBytes) 	35648
attr interpolationmode  none
attr source  rxPkOk
attr title  "packets received OK, sum(packetBytes)"
scalar ClientServerNetwork.router.ppp[11].ppp 	txPk:count 	203
attr interpolationmode  none
attr source  packetSentToLower
attr title  "packets transmitted, count"
scalar ClientServerNetwork.router.ppp[11].ppp 	txPk:sum(packetBytes) 	15418
attr interpolationmode  none
attr source  packetSentToLower
attr title  "packets transmitted, sum(packetBytes)"
scalar ClientServerNetwork.router.ppp[11].ppp 	txState:timeavg 	0.33507516326064
attr interpolationmode  sample-hold
attr title  "tx state, timeavg"
scalar ClientServerNetwork.router.ppp[11].ppp 	passedUpPk:count 	204
attr interpolationmode  none
attr source  packetSentToUpper
attr title  "packets passed to higher layer, count"
scalar ClientServerNetwork.router.ppp[11].ppp 	passedUpPk:sum(packetBytes) 	34220
attr interpolationmode  none
attr source  packetSentToUpper
attr title  "packets passed to higher layer, sum(packetBytes)"
scalar ClientServerNetwork.router.ppp[11].ppp 	rcvdPkFromHL:count 	203
attr interpolationmode  none
attr source  packetReceivedFromUpper
attr title  "packets received from higher layer, count"
scalar ClientServerNetwork.router.ppp[11].ppp 	rcvdPkFromHL:sum(packetBytes) 	13997
attr interpolationmode  none
attr source  packetReceivedFromUpper
attr title  "packets received from higher layer, sum(packetBytes)"
scalar ClientServerNetwork.router.ppp[11].ppp 	droppedPkBitError:count 	0
attr interpolationmode  none
attr source  dropPkBitError
attr title  "packets dropped/bit error, count"
scalar ClientServerNetwork.router.ppp[11].ppp 	droppedPkBitError:sum(packetBytes) 	0
attr interpolationmode  none
attr source  dropPkBitError
attr title  "packets dropped/bit error, sum(packetBytes)"
scalar ClientServerNetwork.router.ppp[12].queue 	queueLength:max 	14
attr interpolationmode  sample-hold
attr title  "queue length, max"
scalar ClientServerNetwork.router.ppp[12].queue 	queueLength:timeavg 	1.4000343588524
attr interpolationmode  sample-hold
attr title  "queue length, timeavg"
statistic ClientServerNetwork.router.ppp[12].queue 	queueingTime:histogram
field count 203
field mean 0.00025387412908374
field stddev 0.00039789000888816
field sum 0.051536448204
field sqrsum 4.506369565681e-05
field min 0
field max 0.00156347979
attr interpolationmode  none
attr title  "queueing time, histogram"
bin	-INF	0
bin	-0.000781739895	0
bin	-0.000677507909	0
bin	-0.000573275923	0
bin	-0.000469043937	0
bin	-0.000364811951	0
bin	-0.000260579965	0
bin	-0.000156347979	0
bin	-5.2115993e-05	116
bin	5.2115993e-05	18
bin	0.000156347979	7
bin	0.000260579965	4
bin	0.000364811951	6
bin	0.000469043937	14
bin	0.000573275923	4
bin	0.000677507909	8
bin	0.000781739895	9
bin	0.000885971881	1
bin	0.000990203867	5
bin	0.001094435853	2
bin	0.001198667839	0
bin	0.001302899825	5
bin	0.001407131811	0
bin	0.001511363797	4
bin	0.001615595783	0
bin	0.001719827769	0
bin	0.001824059755	0
bin	0.001928291741	0
bin	0.002032523727	0
bin	0.002136755713	0
bin	0.002240987699	0
bin	0.002345219685	0
scalar ClientServerNetwork.router.ppp[12].queue 	dropPk:count 	0
attr interpolationmode  none
attr source  dropPkByQueue
attr title  "dropped packets, count"
scalar ClientServerNetwork.router.ppp[12].queue 	dropPk:sum(packetBytes) 	0
attr interpolationmode  none
attr source  dropPkByQueue
attr title  "dropped packets, sum(packetBytes)"
scalar ClientServerNetwork.router.ppp[12].queue 	rcvdPk:count 	203
attr interpolationmode  none
attr title  "received packets, count"
scalar ClientServerNetwork.router.ppp[12].queue 	rcvdPk:sum(packetBytes) 	16421
attr interpolationmode  none
attr title  "received packets, sum(packetBytes)"
scalar ClientServerNetwork.router.ppp[12].ppp 	droppedPkIfaceDown:count 	0
attr interpolationmode  none
attr source  dropPkIfaceDown
attr title  "packets dropped/interface down, count"
scalar ClientServerNetwork.router.ppp[12].ppp 	droppedPkIfaceDown:sum(packetBytes) 	0
attr interpolationmode  none
attr source  dropPkIfaceDown
attr title  "packets dropped/interface down, sum(packetBytes)"
scalar ClientServerNetwork.router.ppp[12].ppp 	rxPkOk:count 	204
attr interpolationmode  none
attr source  rxPkOk
attr title  "packets received OK, count"
scalar ClientServerNetwork.router.ppp[12].ppp 	rxPkOk:sum(packetBytes) 	33244
attr interpolationmode  none
attr source  rxPkOk
attr title  "packets received OK, sum(packetBytes)"
scalar ClientServerNetwork.router.ppp[12].ppp 	txPk:count 	203
attr interpolationmode  none
attr source  packetSentToLower
attr title  "packets transmitted, count"
scalar ClientServerNetwork.router.ppp[12].ppp 	txPk:sum(packetBytes) 	17842
attr interpolationmode  none
attr source  packetSentToLower
attr title  "packets transmitted, sum(packetBytes)"
scalar ClientServerNetwork.router.ppp[12].ppp 	txState:timeavg 	0.38775529010873
attr interpolationmode  sample-hold
attr title  "tx state, timeavg"
scalar ClientServerNetwork.router.ppp[12].ppp 	passedUpPk:count 	204
attr interpolationmode  none
attr source  packetSentToUpper
attr title  "packets passed to higher layer, count"
scalar ClientServerNetwork.router.ppp[12].ppp 	passedUpPk:sum(packetBytes) 	31816
attr interpolationmode  none
attr source  packetSentToUpper
attr title  "packets passed to higher layer, sum(packetBytes)"
scalar ClientServerNetwork.router.ppp[12].ppp 	rcvdPkFromHL:count 	203
attr interpolationmode  none
attr source  packetReceivedFromUpper
attr title  "packets received from higher layer, count"
scalar ClientServerNetwork.router.ppp[12].ppp 	rcvdPkFromHL:sum(packetBytes) 	16421
attr interpolationmode  none
attr source  packetReceivedFromUpper
attr title  "packets received from higher layer, sum(packetBytes)"
scalar ClientServerNetwork.router.ppp[12].ppp 	droppedPkBitError:count 	0
attr interpolationmode  none
attr source  dropPkBitError
attr title  "packets dropped/bit error, count"
scalar ClientServerNetwork.router.ppp[12].ppp 	droppedPkBitError:sum(packetBytes) 	0
attr interpolationmode  none
attr source  dropPkBitError
attr title  "packets dropped/bit error, sum(packetBytes)"
scalar ClientServerNetwork.router.ppp[13].queue 	queueLength:max 	11
attr interpolationmode  sample-hold
attr title  "queue length, max"
scalar ClientServerNetwork.router.ppp[13].queue 	queueLength:timeavg 	0.56193145694354
attr interpolationmode  sample-hold
attr title  "queue length, timeavg"
statistic ClientServerNetwork.router.ppp[13].queue 	queueingTime:histogram
field count 203
field mean 0.00010189739868473
field stddev 0.00024155667776188
field sum 0.020685171933
field sqrsum 1.3894390182733e-05
field min 0
field max 0.001100480807
attr interpolationmode  none
attr title  "queueing time, histogram"
bin	-INF	0
bin	-0.0005502404035	0
bin	-0.00047687501636667	0
bin	-0.00040350962923333	0
bin	-0.0003301442421	0
bin	-0.00025677885496667	0
bin	-0.00018341346783333	0
bin	-0.0001100480807	0
bin	-3.6682693566667e-05	144
bin	3.6682693566667e-05	24
bin	0.0001100480807	11
bin	0.00018341346783333	1
bin	0.00025677885496667	0
bin	0.0003301442421	4
bin	0.00040350962923333	2
bin	0.00047687501636667	2
bin	0.0005502404035	1
bin	0.00062360579063333	3
bin	0.00069697117776667	0
bin	0.0007703365649	0
bin	0.00084370195203333	5
bin	0.00091706733916667	1
bin	0.0009904327263	3
bin	0.0010637981134333	2
bin	0.0011371635005667	0
bin	0.0012105288877	0
bin	0.0012838942748333	0
bin	0.0013572596619667	0
bin	0.0014306250491	0
bin	0.0015039904362333	0
bin	0.0015773558233667	0
bin	0.0016507212105	0
scalar ClientServerNetwork.router.ppp[13].queue 	dropPk:count 	0
attr interpolationmode  none
attr source  dropPkByQueue
attr title  "dropped packets, count"
scalar ClientServerNetwork.router.ppp[13].queue 	dropPk:sum(packetBytes) 	0
attr interpolationmode  none
attr source  dropPkByQueue
attr title  "dropped packets, sum(packetBytes)"
scalar ClientServerNetwork.router.ppp[13].queue 	rcvdPk:count 	203
attr interpolationmode  none
attr title  "received packets, count"
scalar ClientServerNetwork.router.ppp[13].queue 	rcvdPk:sum(packetBytes) 	11573
attr interpolationmode  none
attr title  "received packets, sum(packetBytes)"
scalar ClientServerNetwork.router.ppp[13].ppp 	droppedPkIfaceDown:count 	0
attr interpolationmode  none
attr source  dropPkIfaceDown
attr title  "packets dropped/interface down, count"
scalar ClientServerNetwork.router.ppp[13].ppp 	droppedPkIfaceDown:sum(packetBytes) 	0
attr interpolationmode  none
attr source  dropPkIfaceDown
attr title  "packets dropped/interface down, sum(packetBytes)"
scalar ClientServerNetwork.router.ppp[13].ppp 	rxPkOk:count 	204
attr interpolationmode  none
attr source  rxPkOk
attr title  "packets received OK, count"
scalar ClientServerNetwork.router.ppp[13].ppp 	rxPkOk:sum(packetBytes) 	38052
attr interpolationmode  none
attr source  rxPkOk
attr title  "packets received OK, sum(packetBytes)"
scalar ClientServerNetwork.router.ppp[13].ppp 	txPk:count 	203
attr interpolationmode  none
attr source  packetSentToLower
attr title  "packets transmitted, count"
scalar ClientServerNetwork.router.ppp[13].ppp 	txPk:sum(packetBytes) 	12994
attr interpolationmode  none
attr source  packetSentToLower
attr title  "packets transmitted, sum(packetBytes)"
scalar ClientServerNetwork.router.ppp[13].ppp 	txState:timeavg 	0.28239503641255
attr interpolationmode  sample-hold
attr title  "tx state, timeavg"
scalar ClientServerNetwork.router.ppp[13].ppp 	passedUpPk:count 	204
attr interpolationmode  none
attr source  packetSentToUpper
attr title  "packets passed to higher layer, count"
scalar ClientServerNetwork.router.ppp[13].ppp 	passedUpPk:sum(packetBytes) 	36624
attr interpolationmode  none
attr source  packetSentToUpper
attr title  "packets passed to higher layer, sum(packetBytes)"
scalar ClientServerNetwork.router.ppp[13].ppp 	rcvdPkFromHL:count 	203
attr interpolationmode  none
attr source  packetReceivedFromUpper
attr title  "packets received from higher layer, count"
scalar ClientServerNetwork.router.ppp[13].ppp 	rcvdPkFromHL:sum(packetBytes) 	11573
attr interpolationmode  none
attr source  packetReceivedFromUpper
attr title  "packets received from higher layer, sum(packetBytes)"
scalar ClientServerNetwork.router.ppp[13].ppp 	droppedPkBitError:count 	0
attr interpolationmode  none
attr source  dropPkBitError
attr title  "packets dropped/bit error, count"
scalar ClientServerNetwork.router.ppp[13].ppp 	droppedPkBitError:sum(packetBytes) 	0
attr interpolationmode  none
attr source  dropPkBitError
attr title  "packets dropped/bit error, sum(packetBytes)"
scalar ClientServerNetwork.router.ppp[14].queue 	queueLength:max 	40
attr interpolationmode  sample-hold
attr title  "queue length, max"
scalar ClientServerNetwork.router.ppp[14].queue 	queueLength:timeavg 	17.432316929198
attr interpolationmode  sample-hold
attr title  "queue length, timeavg"
statistic ClientServerNetwork.router.ppp[14].queue 	queueingTime:histogram
field count 195
field mean 0.0032907606244667
field stddev 0.002206312364525
field sum 0.641698321771
field sqrsum 0.0030560315345424
field min 0
field max 0.007646050309
attr interpolationmode  none
attr title  "queueing time, histogram"
bin	-INF	0
bin	-0.0018771218495	0
bin	-0.0016268389362333	0
bin	-0.0013765560229667	0
bin	-0.0011262731097	0
bin	-0.00087599019643333	0
bin	-0.00062570728316667	0
bin	-0.0003754243699	0
bin	-0.00012514145663333	11
bin	0.00012514145663333	8
bin	0.0003754243699	3
bin	0.00062570728316667	6
bin	0.00087599019643333	21
bin	0.0011262731097	7
bin	0.0013765560229667	8
bin	0.0016268389362333	4
bin	0.0018771218495	10
bin	0.0021274047627667	2
bin	0.0023776876760333	4
bin	0.0026279705893	8
bin	0.0028782535025667	2
bin	0.0031285364158333	7
bin	0.0033788193291	7
bin	0.0036291022423667	10
bin	0.0038793851556333	5
bin	0.0041296680689	2
bin	0.0043799509821667	2
bin	0.0046302338954333	7
bin	0.0048805168087	10
bin	0.0051307997219667	5
bin	0.0053810826352333	4
bin	0.0056313655485	42
scalar ClientServerNetwork.router.ppp[14].queue 	dropPk:count 	0
attr interpolationmode  none
attr source  dropPkByQueue
attr title  "dropped packets, count"
scalar ClientServerNetwork.router.ppp[14].queue 	dropPk:sum(packetBytes) 	0
attr interpolationmode  none
attr source  dropPkByQueue
attr title  "dropped packets, sum(packetBytes)"
scalar ClientServerNetwork.router.ppp[14].queue 	rcvdPk:count 	195
attr interpolationmode  none
attr title  "received packets, count"
scalar ClientServerNetwork.router.ppp[14].queue 	rcvdPk:sum(packetBytes) 	36673
attr interpolationmode  none
attr title  "received packets, sum(packetBytes)"
scalar ClientServerNetwork.router.ppp[14].ppp 	droppedPkIfaceDown:count 	0
attr interpolationmode  none
attr source  dropPkIfaceDown
attr title  "packets dropped/interface down, count"
scalar ClientServerNetwork.router.ppp[14].ppp 	droppedPkIfaceDown:sum(packetBytes) 	0
attr interpolationmode  none
attr source  dropPkIfaceDown
attr title  "packets dropped/interface down, sum(packetBytes)"
scalar ClientServerNetwork.router.ppp[14].ppp 	rxPkOk:count 	196
attr interpolationmode  none
attr source  rxPkOk
attr title  "packets received OK, count"
scalar ClientServerNetwork.router.ppp[14].ppp 	rxPkOk:sum(packetBytes) 	11200
attr interpolationmode  none
attr source  rxPkOk
attr title  "packets received OK, sum(packetBytes)"
scalar ClientServerNetwork.router.ppp[14].ppp 	txPk:count 	195
attr interpolationmode  none
attr source  packetSentToLower
attr title  "packets transmitted, count"
scalar ClientServerNetwork.router.ppp[14].ppp 	txPk:sum(packetBytes) 	38038
attr interpolationmode  none
attr source  packetSentToLower
attr title  "packets transmitted, sum(packetBytes)"
scalar ClientServerNetwork.router.ppp[14].ppp 	txState:timeavg 	0.82666941627372
attr interpolationmode  sample-hold
attr title  "tx state, timeavg"
scalar ClientServerNetwork.router.ppp[14].ppp 	passedUpPk:count 	196
attr interpolationmode  none
attr source  packetSentToUpper
attr title  "packets passed to higher layer, count"
scalar ClientServerNetwork.router.ppp[14].ppp 	passedUpPk:sum(packetBytes) 	9828
attr interpolationmode  none
attr source  packetSentToUpper
attr title  "packets passed to higher layer, sum(packetBytes)"
scalar ClientServerNetwork.router.ppp[14].ppp 	rcvdPkFromHL:count 	195
attr interpolationmode  none
attr source  packetReceivedFromUpper
attr title  "packets received from higher layer, count"
scalar ClientServerNetwork.router.ppp[14].ppp 	rcvdPkFromHL:sum(packetBytes) 	36673
attr interpolationmode  none
attr source  packetReceivedFromUpper
attr title  "packets received from higher layer, sum(packetBytes)"
scalar ClientServerNetwork.router.ppp[14].ppp 	droppedPkBitError:count 	0
attr interpolationmode  none
attr source  dropPkBitError
attr title  "packets dropped/bit error, count"
scalar ClientServerNetwork.router.ppp[14].ppp 	droppedPkBitError:sum(packetBytes) 	0
attr interpolationmode  none
attr source  dropPkBitError
attr title  "packets dropped/bit error, sum(packetBytes)"
scalar ClientServerNetwork.router.ppp[15].queue 	queueLength:max 	6
attr interpolationmode  sample-hold
attr title  "queue length, max"
scalar ClientServerNetwork.router.ppp[15].queue 	queueLength:timeavg 	0.10181921227418
attr interpolationmode  sample-hold
attr title  "queue length, timeavg"
statistic ClientServerNetwork.router.ppp[15].queue 	queueingTime:histogram
field count 195
field mean 1.9220775753846e-05
field stddev 3.4066877232816e-05
field sum 0.003748051272
field sqrsum 2.9718756514581e-07
field min 0
field max 0.000203725529
attr interpolationmode  none
attr title  "queueing time, histogram"
bin	-INF	0
bin	-5.15595965e-05	0
bin	-4.4684983633333e-05	0
bin	-3.7810370766667e-05	0
bin	-3.09357579e-05	0
bin	-2.4061145033333e-05	0
bin	-1.7186532166667e-05	0
bin	-1.03119193e-05	0
bin	-3.4373064333333e-06	116
bin	3.4373064333333e-06	2
bin	1.03119193e-05	16
bin	1.7186532166667e-05	5
bin	2.4061145033333e-05	7
bin	3.09357579e-05	13
bin	3.7810370766667e-05	5
bin	4.4684983633333e-05	7
bin	5.15595965e-05	3
bin	5.8434209366667e-05	6
bin	6.5308822233333e-05	1
bin	7.21834351e-05	1
bin	7.9058047966667e-05	1
bin	8.5932660833333e-05	1
bin	9.28072737e-05	3
bin	9.9681886566667e-05	4
bin	0.00010655649943333	0
bin	0.0001134311123	0
bin	0.00012030572516667	0
bin	0.00012718033803333	0
bin	0.0001340549509	1
bin	0.00014092956376667	0
bin	0.00014780417663333	0
bin	0.0001546787895	3
scalar ClientServerNetwork.router.ppp[15].queue 	dropPk:count 	0
attr interpolationmode  none
attr source  dropPkByQueue
attr title  "dropped packets, count"
scalar ClientServerNetwork.router.ppp[15].queue 	dropPk:sum(packetBytes) 	0
attr interpolationmode  none
attr source  dropPkByQueue
attr title  "dropped packets, sum(packetBytes)"
scalar ClientServerNetwork.router.ppp[15].queue 	rcvdPk:count 	195
attr interpolationmode  none
attr title  "received packets, count"
scalar ClientServerNetwork.router.ppp[15].queue 	rcvdPk:sum(packetBytes) 	8797
attr interpolationmode  none
attr title  "received packets, sum(packetBytes)"
scalar ClientServerNetwork.router.ppp[15].ppp 	droppedPkIfaceDown:count 	0
attr interpolationmode  none
attr source  dropPkIfaceDown
attr title  "packets dropped/interface down, count"
scalar ClientServerNetwork.router.ppp[15].ppp 	droppedPkIfaceDown:sum(packetBytes) 	0
attr interpolationmode  none
attr source  dropPkIfaceDown
attr title  "packets dropped/interface down, sum(packetBytes)"
scalar ClientServerNetwork.router.ppp[15].ppp 	rxPkOk:count 	196
attr interpolationmode  none
attr source  rxPkOk
attr title  "packets received OK, count"
scalar ClientServerNetwork.router.ppp[15].ppp 	rxPkOk:sum(packetBytes) 	38846
attr interpolationmode  none
attr source  rxPkOk
attr title  "packets received OK, sum(packetBytes)"
scalar ClientServerNetwork.router.ppp[15].ppp 	txPk:count 	195
attr interpolationmode  none
attr source  packetSentToLower
attr title  "packets transmitted, count"
scalar ClientServerNetwork.router.ppp[15].ppp 	txPk:sum(packetBytes) 	10162
attr interpolationmode  none
attr source  packetSentToLower
attr title  "packets transmitted, sum(packetBytes)"
scalar ClientServerNetwork.router.ppp[15].ppp 	txState:timeavg 	0.22084795752073
attr interpolationmode  sample-hold
attr title  "tx state, timeavg"
scalar ClientServerNetwork.router.ppp[15].ppp 	passedUpPk:count 	196
attr interpolationmode  none
attr source  packetSentToUpper
attr title  "packets passed to higher layer, count"
scalar ClientServerNetwork.router.ppp[15].ppp 	passedUpPk:sum(packetBytes) 	37474
attr interpolationmode  none
attr source  packetSentToUpper
attr title  "packets passed to higher layer, sum(packetBytes)"
scalar ClientServerNetwork.router.ppp[15].ppp 	rcvdPkFromHL:count 	195
attr interpolationmode  none
attr source  packetReceivedFromUpper
attr title  "packets received from higher layer, count"
scalar ClientServerNetwork.router.ppp[15].ppp 	rcvdPkFromHL:sum(packetBytes) 	8797
attr interpolationmode  none
attr source  packetReceivedFromUpper
attr title  "packets received from higher layer, sum(packetBytes)"
scalar ClientServerNetwork.router.ppp[15].ppp 	droppedPkBitError:count 	0
attr interpolationmode  none
attr source  dropPkBitError
attr title  "packets dropped/bit error, count"
scalar ClientServerNetwork.router.ppp[15].ppp 	droppedPkBitError:sum(packetBytes) 	0
attr interpolationmode  none
attr source  dropPkBitError
attr title  "packets dropped/bit error, sum(packetBytes)"
scalar ClientServerNetwork.router.ppp[16].queue 	queueLength:max 	42
attr interpolationmode  sample-hold
attr title  "queue length, max"
scalar ClientServerNetwork.router.ppp[16].queue 	queueLength:timeavg 	21.37852499664
attr interpolationmode  sample-hold
attr title  "queue length, timeavg"
statistic ClientServerNetwork.router.ppp[16].queue 	queueingTime:histogram
field count 195
field mean 0.0040357003922
field stddev 0.0027581798035151
field sum 0.786961576479
field sqrsum 0.0046518069735753
field min 0
field max 0.008376931202
attr interpolationmode  none
attr title  "queueing time, histogram"
bin	-INF	0
bin	-0.002942565601	0
bin	-0.0025502235208667	0
bin	-0.0021578814407333	0
bin	-0.0017655393606	0
bin	-0.0013731972804667	0
bin	-0.00098085520033333	0
bin	-0.0005885131202	0
bin	-0.00019617104006667	25
bin	0.00019617104006667	20
bin	0.0005885131202	3
bin	0.00098085520033333	4
bin	0.0013731972804667	6
bin	0.0017655393606	5
bin	0.0021578814407333	3
bin	0.0025502235208667	5
bin	0.002942565601	6
bin	0.0033349076811333	4
bin	0.0037272497612667	7
bin	0.0041195918414	10
bin	0.0045119339215333	5
bin	0.0049042760016667	13
bin	0.0052966180818	10
bin	0.0056889601619333	16
bin	0.0060813022420667	8
bin	0.0064736443222	9
bin	0.0068659864023333	7
bin	0.0072583284824667	11
bin	0.0076506705626	12
bin	0.0080430126427333	6
bin	0.0084353547228667	0
bin	0.008827696803	0
scalar ClientServerNetwork.router.ppp[16].queue 	dropPk:count 	0
attr interpolationmode  none
attr source  dropPkByQueue
attr title  "dropped packets, count"
scalar ClientServerNetwork.router.ppp[16].queue 	dropPk:sum(packetBytes) 	0
attr interpolationmode  none
attr source  dropPkByQueue
attr title  "dropped packets, sum(packetBytes)"
scalar ClientServerNetwork.router.ppp[16].queue 	rcvdPk:count 	195
attr interpolationmode  none
attr title  "received packets, count"
scalar ClientServerNetwork.router.ppp[16].queue 	rcvdPk:sum(packetBytes) 	37885
attr interpolationmode  none
attr title  "received packets, sum(packetBytes)"
scalar ClientServerNetwork.router.ppp[16].ppp 	droppedPkIfaceDown:count 	0
attr interpolationmode  none
attr source  dropPkIfaceDown
attr title  "packets dropped/interface down, count"
[...]
attr interpolationmode  sample-hold
attr title  "queue length, max"
scalar ClientServerNetwork.client[22].ppp[0].queue 	queueLength:timeavg 	13.708990990005
attr interpolationmode  sample-hold
attr title  "queue length, timeavg"
statistic ClientServerNetwork.client[22].ppp[0].queue 	queueingTime:histogram
field count 212
field mean 0.0023803752198443
field stddev 0.0017511920454421
field sum 0.504639546607
field sqrsum 0.0018482995970809
field min 0
field max 0.00576934964
attr interpolationmode  none
attr title  "queueing time, histogram"
bin	-INF	0
bin	-0.0015549045075	0
bin	-0.0013475839065	0
bin	-0.0011402633055	0
bin	-0.0009329427045	0
bin	-0.0007256221035	0
bin	-0.0005183015025	0
bin	-0.0003109809015	0
bin	-0.0001036603005	34
bin	0.0001036603005	9
bin	0.0003109809015	4
bin	0.0005183015025	8
bin	0.0007256221035	3
bin	0.0009329427045	4
bin	0.0011402633055	6
bin	0.0013475839065	12
bin	0.0015549045075	4
bin	0.0017622251085	9
bin	0.0019695457095	4
bin	0.0021768663105	9
bin	0.0023841869115	5
bin	0.0025915075125	11
bin	0.0027988281135	8
bin	0.0030061487145	8
bin	0.0032134693155	8
bin	0.0034207899165	5
bin	0.0036281105175	3
bin	0.0038354311185	14
bin	0.0040427517195	0
bin	0.0042500723205	17
bin	0.0044573929215	4
bin	0.0046647135225	23
scalar ClientServerNetwork.client[22].ppp[0].queue 	dropPk:count 	0
attr interpolationmode  none
attr source  dropPkByQueue
attr title  "dropped packets, count"
scalar ClientServerNetwork.client[22].ppp[0].queue 	dropPk:sum(packetBytes) 	0
attr interpolationmode  none
attr source  dropPkByQueue
attr title  "dropped packets, sum(packetBytes)"
scalar ClientServerNetwork.client[22].ppp[0].queue 	rcvdPk:count 	212
attr interpolationmode  none
attr title  "received packets, count"
scalar ClientServerNetwork.client[22].ppp[0].queue 	rcvdPk:sum(packetBytes) 	27360
attr interpolationmode  none
attr title  "received packets, sum(packetBytes)"
scalar ClientServerNetwork.client[22].ppp[0].ppp 	droppedPkIfaceDown:count 	0
attr interpolationmode  none
attr source  dropPkIfaceDown
attr title  "packets dropped/interface down, count"
scalar ClientServerNetwork.client[22].ppp[0].ppp 	droppedPkIfaceDown:sum(packetBytes) 	0
attr interpolationmode  none
attr source  dropPkIfaceDown
attr title  "packets dropped/interface down, sum(packetBytes)"
scalar ClientServerNetwork.client[22].ppp[0].ppp 	rxPkOk:count 	211
attr interpolationmode  none
attr source  rxPkOk
attr title  "packets received OK, count"
scalar ClientServerNetwork.client[22].ppp[0].ppp 	rxPkOk:sum(packetBytes) 	24309
attr interpolationmode  none
attr source  rxPkOk
attr title  "packets received OK, sum(packetBytes)"
scalar ClientServerNetwork.client[22].ppp[0].ppp 	txPk:count 	212
attr interpolationmode  none
attr source  packetSentToLower
attr title  "packets transmitted, count"
scalar ClientServerNetwork.client[22].ppp[0].ppp 	txPk:sum(packetBytes) 	28844
attr interpolationmode  none
attr source  packetSentToLower
attr title  "packets transmitted, sum(packetBytes)"
scalar ClientServerNetwork.client[22].ppp[0].ppp 	txState:timeavg 	0.62685873713127
attr interpolationmode  sample-hold
attr title  "tx state, timeavg"
scalar ClientServerNetwork.client[22].ppp[0].ppp 	passedUpPk:count 	211
attr interpolationmode  none
attr source  packetSentToUpper
attr title  "packets passed to higher layer, count"
scalar ClientServerNetwork.client[22].ppp[0].ppp 	passedUpPk:sum(packetBytes) 	22832
attr interpolationmode  none
attr source  packetSentToUpper
attr title  "packets passed to higher layer, sum(packetBytes)"
scalar ClientServerNetwork.client[22].ppp[0].ppp 	rcvdPkFromHL:count 	212
attr interpolationmode  none
attr source  packetReceivedFromUpper
attr title  "packets received from higher layer, count"
scalar ClientServerNetwork.client[22].ppp[0].ppp 	rcvdPkFromHL:sum(packetBytes) 	27360
attr interpolationmode  none
attr source  packetReceivedFromUpper
attr title  "packets received from higher layer, sum(packetBytes)"
scalar ClientServerNetwork.client[22].ppp[0].ppp 	droppedPkBitError:count 	0
attr interpolationmode  none
attr source  dropPkBitError
attr title  "packets dropped/bit error, count"
scalar ClientServerNetwork.client[22].ppp[0].ppp 	droppedPkBitError:sum(packetBytes) 	0
attr interpolationmode  none
attr source  dropPkBitError
attr title  "packets dropped/bit error, sum(packetBytes)"
statistic ClientServerNetwork.client[22].tcpApp[0] 	jitter:histogram
field count 0
field mean 0
field stddev nan
field sum 0
field sqrsum 0
field min 0
field max 0
attr title  "jitter of received packets, histogram"
bin	-INF	0
bin	-0.5	0
bin	-0.46666666666667	0
bin	-0.43333333333333	0
bin	-0.4	0
bin	-0.36666666666667	0
bin	-0.33333333333333	0
bin	-0.3	0
bin	-0.26666666666667	0
bin	-0.23333333333333	0
bin	-0.2	0
bin	-0.16666666666667	0
bin	-0.13333333333333	0
bin	-0.1	0
bin	-0.066666666666667	0
bin	-0.033333333333333	0
bin	0	0
bin	0.033333333333333	0
bin	0.066666666666667	0
bin	0.1	0
bin	0.13333333333333	0
bin	0.16666666666667	0
bin	0.2	0
bin	0.23333333333333	0
bin	0.26666666666667	0
bin	0.3	0
bin	0.33333333333333	0
bin	0.36666666666667	0
bin	0.4	0
bin	0.43333333333333	0
bin	0.46666666666667	0
bin	0.5	0
scalar ClientServerNetwork.client[23].networkLayer.arp 	failedResolution:count 	0
attr title  "ARP failed resolutions, count"
scalar ClientServerNetwork.client[23].networkLayer.arp 	initiatedResolution:count 	0
attr title  "ARP initiated resolutions, count"
scalar ClientServerNetwork.client[23].networkLayer.arp 	sentReplies:count 	0
attr title  "ARP replies sent, count"
scalar ClientServerNetwork.client[23].networkLayer.arp 	sentReq:count 	0
attr title  "ARP request sent, count"
scalar ClientServerNetwork.client[23].lo0.lo 	passedUpPk:count 	16
attr interpolationmode  none
attr source  packetSentToUpper
attr title  "packets passed to higher layer, count"
scalar ClientServerNetwork.client[23].lo0.lo 	passedUpPk:sum(packetBytes) 	1906
attr interpolationmode  none
attr source  packetSentToUpper
attr title  "packets passed to higher layer, sum(packetBytes)"
scalar ClientServerNetwork.client[23].lo0.lo 	rcvdPkFromHL:count 	16
attr interpolationmode  none
attr source  packetReceivedFromUpper
attr title  "packets received from higher layer, count"
scalar ClientServerNetwork.client[23].lo0.lo 	rcvdPkFromHL:sum(packetBytes) 	1906
attr interpolationmode  none
attr source  packetReceivedFromUpper
attr title  "packets received from higher layer, sum(packetBytes)"
scalar ClientServerNetwork.client[23].lo0.lo 	droppedPkBitError:count 	0
attr interpolationmode  none
attr source  dropPkBitError
attr title  "packets dropped/bit error, count"
scalar ClientServerNetwork.client[23].lo0.lo 	droppedPkBitError:sum(packetBytes) 	0
attr interpolationmode  none
attr source  dropPkBitError
attr title  "packets dropped/bit error, sum(packetBytes)"
scalar ClientServerNetwork.client[23].ppp[0].queue 	queueLength:max 	55
attr interpolationmode  sample-hold
attr title  "queue length, max"
scalar ClientServerNetwork.client[23].ppp[0].queue 	queueLength:timeavg 	16.915528025713
attr interpolationmode  sample-hold
attr title  "queue length, timeavg"
statistic ClientServerNetwork.client[23].ppp[0].queue 	queueingTime:histogram
field count 204
field mean 0.0030523278695588
field stddev 0.0026987321273642
field sum 0.62267488539
field sqrsum 0.0033790883906896
field min 0
field max 0.00877329295
attr interpolationmode  none
attr title  "queueing time, histogram"
bin	-INF	0
bin	-0.0018436	0
bin	-0.0015977866666667	0
bin	-0.0013519733333333	0
bin	-0.00110616	0
bin	-0.00086034666666667	0
bin	-0.00061453333333333	0
bin	-0.00036872	0
bin	-0.00012290666666667	33
bin	0.00012290666666667	13
bin	0.00036872	17
bin	0.00061453333333333	5
bin	0.00086034666666667	21
bin	0.00110616	7
bin	0.0013519733333333	1
bin	0.0015977866666667	2
bin	0.0018436	1
bin	0.0020894133333333	3
bin	0.0023352266666667	0
bin	0.00258104	3
bin	0.0028268533333333	1
bin	0.0030726666666667	3
bin	0.00331848	1
bin	0.0035642933333333	3
bin	0.0038101066666667	0
bin	0.00405592	5
bin	0.0043017333333333	4
bin	0.0045475466666667	13
bin	0.00479336	6
bin	0.0050391733333333	1
bin	0.0052849866666667	4
bin	0.0055308	57
scalar ClientServerNetwork.client[23].ppp[0].queue 	dropPk:count 	0
attr interpolationmode  none
attr source  dropPkByQueue
attr title  "dropped packets, count"
scalar ClientServerNetwork.client[23].ppp[0].queue 	dropPk:sum(packetBytes) 	0
attr interpolationmode  none
attr source  dropPkByQueue
attr title  "dropped packets, sum(packetBytes)"
scalar ClientServerNetwork.client[23].ppp[0].queue 	rcvdPk:count 	204
attr interpolationmode  none
attr title  "received packets, count"
scalar ClientServerNetwork.client[23].ppp[0].queue 	rcvdPk:sum(packetBytes) 	29412
attr interpolationmode  none
attr title  "received packets, sum(packetBytes)"
scalar ClientServerNetwork.client[23].ppp[0].ppp 	droppedPkIfaceDown:count 	0
attr interpolationmode  none
attr source  dropPkIfaceDown
attr title  "packets dropped/interface down, count"
scalar ClientServerNetwork.client[23].ppp[0].ppp 	droppedPkIfaceDown:sum(packetBytes) 	0
attr interpolationmode  none
attr source  dropPkIfaceDown
attr title  "packets dropped/interface down, sum(packetBytes)"
scalar ClientServerNetwork.client[23].ppp[0].ppp 	rxPkOk:count 	203
attr interpolationmode  none
attr source  rxPkOk
attr title  "packets received OK, count"
scalar ClientServerNetwork.client[23].ppp[0].ppp 	rxPkOk:sum(packetBytes) 	20266
attr interpolationmode  none
attr source  rxPkOk
attr title  "packets received OK, sum(packetBytes)"
scalar ClientServerNetwork.client[23].ppp[0].ppp 	txPk:count 	204
attr interpolationmode  none
attr source  packetSentToLower
attr title  "packets transmitted, count"
scalar ClientServerNetwork.client[23].ppp[0].ppp 	txPk:sum(packetBytes) 	30840
attr interpolationmode  none
attr source  packetSentToLower
attr title  "packets transmitted, sum(packetBytes)"
scalar ClientServerNetwork.client[23].ppp[0].ppp 	txState:timeavg 	0.67023725742367
attr interpolationmode  sample-hold
attr title  "tx state, timeavg"
scalar ClientServerNetwork.client[23].ppp[0].ppp 	passedUpPk:count 	203
attr interpolationmode  none
attr source  packetSentToUpper
attr title  "packets passed to higher layer, count"
scalar ClientServerNetwork.client[23].ppp[0].ppp 	passedUpPk:sum(packetBytes) 	18845
attr interpolationmode  none
attr source  packetSentToUpper
attr title  "packets passed to higher layer, sum(packetBytes)"
scalar ClientServerNetwork.client[23].ppp[0].ppp 	rcvdPkFromHL:count 	204
attr interpolationmode  none
attr source  packetReceivedFromUpper
attr title  "packets received from higher layer, count"
scalar ClientServerNetwork.client[23].ppp[0].ppp 	rcvdPkFromHL:sum(packetBytes) 	29412
attr interpolationmode  none
attr source  packetReceivedFromUpper
attr title  "packets received from higher layer, sum(packetBytes)"
scalar ClientServerNetwork.client[23].ppp[0].ppp 	droppedPkBitError:count 	0
attr interpolationmode  none
attr source  dropPkBitError
attr title  "packets dropped/bit error, count"
scalar ClientServerNetwork.client[23].ppp[0].ppp 	droppedPkBitError:sum(packetBytes) 	0
attr interpolationmode  none
attr source  dropPkBitError
attr title  "packets dropped/bit error, sum(packetBytes)"
statistic ClientServerNetwork.client[23].tcpApp[0] 	jitter:histogram
field count 0
field mean 0
field stddev nan
field sum 0
field sqrsum 0
field min 0
field max 0
attr title  "jitter of received packets, histogram"
bin	-INF	0
bin	-0.5	0
bin	-0.46666666666667	0
bin	-0.43333333333333	0
bin	-0.4	0
bin	-0.36666666666667	0
bin	-0.33333333333333	0
bin	-0.3	0
bin	-0.26666666666667	0
bin	-0.23333333333333	0
bin	-0.2	0
bin	-0.16666666666667	0
bin	-0.13333333333333	0
bin	-0.1	0
bin	-0.066666666666667	0
bin	-0.033333333333333	0
bin	0	0
bin	0.033333333333333	0
bin	0.066666666666667	0
bin	0.1	0
bin	0.13333333333333	0
bin	0.16666666666667	0
bin	0.2	0
bin	0.23333333333333	0
bin	0.26666666666667	0
bin	0.3	0
bin	0.33333333333333	0
bin	0.36666666666667	0
bin	0.4	0
bin	0.43333333333333	0
bin	0.46666666666667	0
bin	0.5	0
scalar ClientServerNetwork.client[24].networkLayer.arp 	failedResolution:count 	0
attr title  "ARP failed resolutions, count"
scalar ClientServerNetwork.client[24].networkLayer.arp 	initiatedResolution:count 	0
attr title  "ARP initiated resolutions, count"
scalar ClientServerNetwork.client[24].networkLayer.arp 	sentReplies:count 	0
attr title  "ARP replies sent, count"
scalar ClientServerNetwork.client[24].networkLayer.arp 	sentReq:count 	0
attr title  "ARP request sent, count"
scalar ClientServerNetwork.client[24].lo0.lo 	passedUpPk:count 	16
attr interpolationmode  none
attr source  packetSentToUpper
attr title  "packets passed to higher layer, count"
scalar ClientServerNetwork.client[24].lo0.lo 	passedUpPk:sum(packetBytes) 	1906
attr interpolationmode  none
attr source  packetSentToUpper
attr title  "packets passed to higher layer, sum(packetBytes)"
scalar ClientServerNetwork.client[24].lo0.lo 	rcvdPkFromHL:count 	16
attr interpolationmode  none
attr source  packetReceivedFromUpper
attr title  "packets received from higher layer, count"
scalar ClientServerNetwork.client[24].lo0.lo 	rcvdPkFromHL:sum(packetBytes) 	1906
attr interpolationmode  none
attr source  packetReceivedFromUpper
attr title  "packets received from higher layer, sum(packetBytes)"
scalar ClientServerNetwork.client[24].lo0.lo 	droppedPkBitError:count 	0
attr interpolationmode  none
attr source  dropPkBitError
attr title  "packets dropped/bit error, count"
scalar ClientServerNetwork.client[24].lo0.lo 	droppedPkBitError:sum(packetBytes) 	0
attr interpolationmode  none
attr source  dropPkBitError
attr title  "packets dropped/bit error, sum(packetBytes)"
scalar ClientServerNetwork.client[24].ppp[0].queue 	queueLength:max 	38
attr interpolationmode  sample-hold
attr title  "queue length, max"
scalar ClientServerNetwork.client[24].ppp[0].queue 	queueLength:timeavg 	14.893978852244
attr interpolationmode  sample-hold
attr title  "queue length, timeavg"
statistic ClientServerNetwork.client[24].ppp[0].queue 	queueingTime:histogram
field count 212
field mean 0.0025861318466557
field stddev 0.0018715580204021
field sum 0.548259951491
field sqrsum 0.0021569484292041
field min 0
field max 0.00643862864
attr interpolationmode  none
attr title  "queueing time, histogram"
bin	-INF	0
bin	-0.0023675683675	0
bin	-0.0020518925851667	0
bin	-0.0017362168028333	0
bin	-0.0014205410205	0
bin	-0.0011048652381667	0
bin	-0.00078918945583333	0
bin	-0.0004735136735	0
bin	-0.00015783789116667	31
bin	0.00015783789116667	19
bin	0.0004735136735	5
bin	0.00078918945583333	3
bin	0.0011048652381667	15
bin	0.0014205410205	9
bin	0.0017362168028333	5
bin	0.0020518925851667	5
bin	0.0023675683675	6
bin	0.0026832441498333	10
bin	0.0029989199321667	22
bin	0.0033145957145	21
bin	0.0036302714968333	9
bin	0.0039459472791667	7
bin	0.0042616230615	8
bin	0.0045772988438333	15
bin	0.0048929746261667	1
bin	0.0052086504085	8
bin	0.0055243261908333	4
bin	0.0058400019731667	5
bin	0.0061556777555	4
bin	0.0064713535378333	0
bin	0.0067870293201667	0
bin	0.0071027051025	0
scalar ClientServerNetwork.client[24].ppp[0].queue 	dropPk:count 	0
attr interpolationmode  none
attr source  dropPkByQueue
attr title  "dropped packets, count"
scalar ClientServerNetwork.client[24].ppp[0].queue 	dropPk:sum(packetBytes) 	0
attr interpolationmode  none
attr source  dropPkByQueue
attr title  "dropped packets, sum(packetBytes)"
scalar ClientServerNetwork.client[24].ppp[0].queue 	rcvdPk:count 	212
attr interpolationmode  none
attr title  "received packets, count"
scalar ClientServerNetwork.client[24].ppp[0].queue 	rcvdPk:sum(packetBytes) 	26158
attr interpolationmode  none
attr title  "received packets, sum(packetBytes)"
scalar ClientServerNetwork.client[24].ppp[0].ppp 	droppedPkIfaceDown:count 	0
attr interpolationmode  none
attr source  dropPkIfaceDown
attr title  "packets dropped/interface down, count"
scalar ClientServerNetwork.client[24].ppp[0].ppp 	droppedPkIfaceDown:sum(packetBytes) 	0
attr interpolationmode  none
attr source  dropPkIfaceDown
attr title  "packets dropped/interface down, sum(packetBytes)"
scalar ClientServerNetwork.client[24].ppp[0].ppp 	rxPkOk:count 	211
attr interpolationmode  none
attr source  rxPkOk
attr title  "packets received OK, count"
scalar ClientServerNetwork.client[24].ppp[0].ppp 	rxPkOk:sum(packetBytes) 	25522
attr interpolationmode  none
attr source  rxPkOk
attr title  "packets received OK, sum(packetBytes)"
scalar ClientServerNetwork.client[24].ppp[0].ppp 	txPk:count 	212
attr interpolationmode  none
attr source  packetSentToLower
attr title  "packets transmitted, count"
scalar ClientServerNetwork.client[24].ppp[0].ppp 	txPk:sum(packetBytes) 	27642
attr interpolationmode  none
attr source  packetSentToLower
attr title  "packets transmitted, sum(packetBytes)"
scalar ClientServerNetwork.client[24].ppp[0].ppp 	txState:timeavg 	0.6007360009632
attr interpolationmode  sample-hold
attr title  "tx state, timeavg"
scalar ClientServerNetwork.client[24].ppp[0].ppp 	passedUpPk:count 	211
attr interpolationmode  none
attr source  packetSentToUpper
attr title  "packets passed to higher layer, count"
scalar ClientServerNetwork.client[24].ppp[0].ppp 	passedUpPk:sum(packetBytes) 	24045
attr interpolationmode  none
attr source  packetSentToUpper
attr title  "packets passed to higher layer, sum(packetBytes)"
scalar ClientServerNetwork.client[24].ppp[0].ppp 	rcvdPkFromHL:count 	212
attr interpolationmode  none
attr source  packetReceivedFromUpper
attr title  "packets received from higher layer, count"
scalar ClientServerNetwork.client[24].ppp[0].ppp 	rcvdPkFromHL:sum(packetBytes) 	26158
attr interpolationmode  none
attr source  packetReceivedFromUpper
attr title  "packets received from higher layer, sum(packetBytes)"
scalar ClientServerNetwork.client[24].ppp[0].ppp 	droppedPkBitError:count 	0
attr interpolationmode  none
attr source  dropPkBitError
attr title  "packets dropped/bit error, count"
scalar ClientServerNetwork.client[24].ppp[0].ppp 	droppedPkBitError:sum(packetBytes) 	0
attr interpolationmode  none
attr source  dropPkBitError
attr title  "packets dropped/bit error, sum(packetBytes)"
statistic ClientServerNetwork.client[24].tcpApp[0] 	jitter:histogram
field count 0
field mean 0
field stddev nan
field sum 0
field sqrsum 0
field min 0
field max 0
attr title  "jitter of received packets, histogram"
bin	-INF	0
bin	-0.5	0
bin	-0.46666666666667	0
bin	-0.43333333333333	0
bin	-0.4	0
bin	-0.36666666666667	0
bin	-0.33333333333333	0
bin	-0.3	0
bin	-0.26666666666667	0
bin	-0.23333333333333	0
bin	-0.2	0
bin	-0.16666666666667	0
bin	-0.13333333333333	0
bin	-0.1	0
bin	-0.066666666666667	0
bin	-0.033333333333333	0
bin	0	0
bin	0.033333333333333	0
bin	0.066666666666667	0
bin	0.1	0
bin	0.13333333333333	0
bin	0.16666666666667	0
bin	0.2	0
bin	0.23333333333333	0
bin	0.26666666666667	0
bin	0.3	0
bin	0.33333333333333	0
bin	0.36666666666667	0
bin	0.4	0
bin	0.43333333333333	0
bin	0.46666666666667	0
bin	0.5	0
statistic ClientServerNetwork 	rtt:stats
field count 25
field mean 0
field stddev 0
field sum 0
field sqrsum 0
field min 0
field max 0
attr interpolationmode  none
attr source  arrival
attr title  "RTT, stats"
statistic ClientServerNetwork 	rtt:histogram
field count 25
field mean 0
field stddev 0
field sum 0
field sqrsum 0
field min 0
field max 0
attr interpolationmode  none
attr source  arrival
attr title  "RTT, histogram"
bin	-INF	0
bin	-0.5	0
bin	-0.46666666666667	0
bin	-0.43333333333333	0
bin	-0.4	0
bin	-0.36666666666667	0
bin	-0.33333333333333	0
bin	-0.3	0
bin	-0.26666666666667	0
bin	-0.23333333333333	0
bin	-0.2	0
bin	-0.16666666666667	0
bin	-0.13333333333333	0
bin	-0.1	0
bin	-0.066666666666667	0
bin	-0.033333333333333	0
bin	0	25
bin	0.033333333333333	0
bin	0.066666666666667	0
bin	0.1	0
bin	0.13333333333333	0
bin	0.16666666666667	0
bin	0.2	0
bin	0.23333333333333	0
bin	0.26666666666667	0
bin	0.3	0
bin	0.33333333333333	0
bin	0.36666666666667	0
bin	0.4	0
bin	0.43333333333333	0
bin	0.46666666666667	0
bin	0.5	0
